
Generated by Molecular Materials Informatics

  7  6  0  0  0  0  0  0  0  0999 V2000
   -6.0518    1.8438    0.0000 N   0  0  0  0  0  0  0  0  0  0  0  0
   -4.7528    2.5938    0.0000 C   0  0  0  0  0  0  0  0  0  0  0  0
   -3.4538    1.8438    0.0000 P   0  0  0  0  0  0  0  0  0  0  0  0
   -4.7528    4.0938    0.0000 C   0  0  0  0  0  0  0  0  0  0  0  0
   -3.4538    0.3438    0.0000 O   0  0  0  0  0  0  0  0  0  0  0  0
   -2.1548    2.5938    0.0000 O   0  0  0  0  0  0  0  0  0  0  0  0
   -4.5144    0.7830    0.0000 O   0  0  0  0  0  0  0  0  0  0  0  0
  2  4  1  0  0  0  0
  3  5  1  0  0  0  0
  2  3  1  0  0  0  0
  3  6  1  0  0  0  0
  1  2  1  0  0  0  0
  3  7  2  0  0  0  0
M  END
> <Name>


> <Value>
4.376750709602099

> <Error>


> <Units>


> <Relation>
=

> <SourceURI>
mol:CHEMBL296494

$$$$

Generated by Molecular Materials Informatics

  8  7  0  0  0  0  0  0  0  0999 V2000
   -0.8101    1.6292    0.0000 N   0  0  0  0  0  0  0  0  0  0  0  0
    0.4888    2.3792    0.0000 C   0  0  0  0  0  0  0  0  0  0  0  0
    1.7879    1.6292    0.0000 P   0  0  0  0  0  0  0  0  0  0  0  0
    0.4888    3.8792    0.0000 C   0  0  0  0  0  0  0  0  0  0  0  0
    1.7879    0.1292    0.0000 O   0  0  0  0  0  0  0  0  0  0  0  0
    3.0869    2.3792    0.0000 O   0  0  0  0  0  0  0  0  0  0  0  0
    0.7271    0.5685    0.0000 O   0  0  0  0  0  0  0  0  0  0  0  0
   -0.8101    4.6292    0.0000 C   0  0  0  0  0  0  0  0  0  0  0  0
  3  5  1  0  0  0  0
  2  3  1  0  0  0  0
  3  6  1  0  0  0  0
  1  2  1  0  0  0  0
  3  7  2  0  0  0  0
  2  4  1  0  0  0  0
  4  8  1  0  0  0  0
M  END
> <Value>
4.301029995663981

> <Relation>
=

> <SourceURI>
mol:CHEMBL289058

$$$$

Generated by Molecular Materials Informatics

  9  8  0  0  0  0  0  0  0  0999 V2000
    5.0607    0.7083    0.0000 N   0  0  0  0  0  0  0  0  0  0  0  0
    6.3597    1.4583    0.0000 C   0  0  0  0  0  0  0  0  0  0  0  0
    7.6587    0.7083    0.0000 P   0  0  0  0  0  0  0  0  0  0  0  0
    6.3597    2.9583    0.0000 C   0  0  0  0  0  0  0  0  0  0  0  0
    7.6587   -0.7917    0.0000 O   0  0  0  0  0  0  0  0  0  0  0  0
    8.9577    1.4583    0.0000 O   0  0  0  0  0  0  0  0  0  0  0  0
    6.5981   -0.3522    0.0000 O   0  0  0  0  0  0  0  0  0  0  0  0
    5.0607    3.7083    0.0000 C   0  0  0  0  0  0  0  0  0  0  0  0
    5.0607    5.2083    0.0000 C   0  0  0  0  0  0  0  0  0  0  0  0
  3  5  1  0  0  0  0
  2  3  1  0  0  0  0
  3  6  1  0  0  0  0
  1  2  1  0  0  0  0
  3  7  2  0  0  0  0
  2  4  1  0  0  0  0
  4  8  1  0  0  0  0
  8  9  1  0  0  0  0
M  END
> <Value>
4.823908740944319

> <Relation>
=

> <SourceURI>
mol:CHEMBL1089898

$$$$

Generated by Molecular Materials Informatics

  9  8  0  0  0  0  0  0  0  0999 V2000
    9.4940    1.5458    0.0000 N   0  0  0  0  0  0  0  0  0  0  0  0
   10.7931    2.2958    0.0000 C   0  0  0  0  0  0  0  0  0  0  0  0
   12.0921    1.5458    0.0000 P   0  0  0  0  0  0  0  0  0  0  0  0
   10.7931    3.7958    0.0000 C   0  0  0  0  0  0  0  0  0  0  0  0
   12.0921    0.0458    0.0000 O   0  0  0  0  0  0  0  0  0  0  0  0
   13.3910    2.2958    0.0000 O   0  0  0  0  0  0  0  0  0  0  0  0
   11.0314    0.4853    0.0000 O   0  0  0  0  0  0  0  0  0  0  0  0
    9.4940    4.5458    0.0000 C   0  0  0  0  0  0  0  0  0  0  0  0
   12.0921    4.5458    0.0000 C   0  0  0  0  0  0  0  0  0  0  0  0
  3  5  1  0  0  0  0
  2  3  1  0  0  0  0
  3  6  1  0  0  0  0
  1  2  1  0  0  0  0
  3  7  2  0  0  0  0
  2  4  1  0  0  0  0
  4  8  1  0  0  0  0
  4  9  1  0  0  0  0
M  END
> <Value>
3.9829666607012197

> <Relation>
=

> <SourceURI>
mol:CHEMBL41544

$$$$

Generated by Molecular Materials Informatics

 10  9  0  0  0  0  0  0  0  0999 V2000
   14.7612    0.8000    0.0000 N   0  0  0  0  0  0  0  0  0  0  0  0
   16.0603    1.5500    0.0000 C   0  0  0  0  0  0  0  0  0  0  0  0
   17.3594    0.8000    0.0000 P   0  0  0  0  0  0  0  0  0  0  0  0
   16.0603    3.0500    0.0000 C   0  0  0  0  0  0  0  0  0  0  0  0
   17.3594   -0.7000    0.0000 O   0  0  0  0  0  0  0  0  0  0  0  0
   18.6583    1.5500    0.0000 O   0  0  0  0  0  0  0  0  0  0  0  0
   16.2987   -0.2607    0.0000 O   0  0  0  0  0  0  0  0  0  0  0  0
   14.7612    3.8000    0.0000 C   0  0  0  0  0  0  0  0  0  0  0  0
   14.7612    5.3000    0.0000 C   0  0  0  0  0  0  0  0  0  0  0  0
   13.4623    3.0500    0.0000 C   0  0  0  0  0  0  0  0  0  0  0  0
  2  3  1  0  0  0  0
  3  6  1  0  0  0  0
  1  2  1  0  0  0  0
  3  7  2  0  0  0  0
  2  4  1  0  0  0  0
  4  8  1  0  0  0  0
  8  9  1  0  0  0  0
  3  5  1  0  0  0  0
  8 10  1  0  0  0  0
M  END
> <Value>
4.431798275933005

> <Relation>
=

> <SourceURI>
mol:CHEMBL89318

$$$$

Generated by Molecular Materials Informatics

 10  9  0  0  0  0  0  0  0  0999 V2000
   -5.6721   -5.4605    0.0000 N   0  0  0  0  0  0  0  0  0  0  0  0
   -4.3730   -4.7104    0.0000 C   0  0  0  0  0  0  0  0  0  0  0  0
   -3.0741   -5.4605    0.0000 P   0  0  0  0  0  0  0  0  0  0  0  0
   -4.3730   -3.2104    0.0000 C   0  0  0  0  0  0  0  0  0  0  0  0
   -3.0741   -6.9605    0.0000 O   0  0  0  0  0  0  0  0  0  0  0  0
   -1.7750   -4.7104    0.0000 O   0  0  0  0  0  0  0  0  0  0  0  0
   -4.1346   -6.5210    0.0000 O   0  0  0  0  0  0  0  0  0  0  0  0
   -5.6721   -2.4605    0.0000 C   0  0  0  0  0  0  0  0  0  0  0  0
   -5.6721   -0.9605    0.0000 C   0  0  0  0  0  0  0  0  0  0  0  0
   -6.9711   -0.2105    0.0000 C   0  0  0  0  0  0  0  0  0  0  0  0
  2  3  1  0  0  0  0
  3  6  1  0  0  0  0
  1  2  1  0  0  0  0
  3  7  2  0  0  0  0
  2  4  1  0  0  0  0
  4  8  1  0  0  0  0
  8  9  1  0  0  0  0
  3  5  1  0  0  0  0
  9 10  1  0  0  0  0
M  END
> <Value>
4.1249387366083

> <Relation>
=

> <SourceURI>
mol:CHEMBL1089899

$$$$

Generated by Molecular Materials Informatics

 11 10  0  0  0  0  0  0  0  0999 V2000
   -0.4553   -6.0062    0.0000 N   0  0  0  0  0  0  0  0  0  0  0  0
    0.8436   -5.2562    0.0000 C   0  0  0  0  0  0  0  0  0  0  0  0
    2.1426   -6.0062    0.0000 P   0  0  0  0  0  0  0  0  0  0  0  0
    0.8436   -3.7563    0.0000 C   0  0  0  0  0  0  0  0  0  0  0  0
    2.1426   -7.5062    0.0000 O   0  0  0  0  0  0  0  0  0  0  0  0
    3.4417   -5.2562    0.0000 O   0  0  0  0  0  0  0  0  0  0  0  0
    1.0819   -7.0670    0.0000 O   0  0  0  0  0  0  0  0  0  0  0  0
   -0.4553   -3.0063    0.0000 C   0  0  0  0  0  0  0  0  0  0  0  0
   -0.4553   -1.5063    0.0000 C   0  0  0  0  0  0  0  0  0  0  0  0
   -1.7544   -0.7563    0.0000 C   0  0  0  0  0  0  0  0  0  0  0  0
   -1.7544    0.7437    0.0000 C   0  0  0  0  0  0  0  0  0  0  0  0
  3  6  1  0  0  0  0
  1  2  1  0  0  0  0
  3  7  2  0  0  0  0
  2  4  1  0  0  0  0
  4  8  1  0  0  0  0
  8  9  1  0  0  0  0
  3  5  1  0  0  0  0
  9 10  1  0  0  0  0
  2  3  1  0  0  0  0
 10 11  1  0  0  0  0
M  END
> <Value>
5.080921907623926

> <Relation>
=

> <SourceURI>
mol:CHEMBL40508

$$$$

Generated by Molecular Materials Informatics

 12 12  0  0  0  0  0  0  0  0999 V2000
    3.9149   -5.3173    0.0000 N   0  0  0  0  0  0  0  0  0  0  0  0
    5.2138   -4.5673    0.0000 C   0  0  0  0  0  0  0  0  0  0  0  0
    6.5128   -5.3173    0.0000 P   0  0  0  0  0  0  0  0  0  0  0  0
    5.2138   -3.0673    0.0000 C   0  0  0  0  0  0  0  0  0  0  0  0
    6.5128   -6.8173    0.0000 O   0  0  0  0  0  0  0  0  0  0  0  0
    7.8119   -4.5673    0.0000 O   0  0  0  0  0  0  0  0  0  0  0  0
    5.4521   -6.3780    0.0000 O   0  0  0  0  0  0  0  0  0  0  0  0
    6.5188   -2.3239    0.0000 C   0  0  0  0  0  0  0  0  0  0  0  0
    6.5196   -0.8252    0.0000 C   0  0  0  0  0  0  0  0  0  0  0  0
    5.2196   -0.0737    0.0000 C   0  0  0  0  0  0  0  0  0  0  0  0
    3.9162   -0.8317    0.0000 C   0  0  0  0  0  0  0  0  0  0  0  0
    3.9220   -2.3279    0.0000 C   0  0  0  0  0  0  0  0  0  0  0  0
  1  2  1  0  0  0  0
  3  7  2  0  0  0  0
  2  4  1  0  0  0  0
  4  8  2  0  0  0  0
  8  9  1  0  0  0  0
  3  5  1  0  0  0  0
  9 10  2  0  0  0  0
  2  3  1  0  0  0  0
 10 11  1  0  0  0  0
  3  6  1  0  0  0  0
 11 12  2  0  0  0  0
 12  4  1  0  0  0  0
M  END
> <Value>
3.657577319177794

> <Relation>
=

> <SourceURI>
mol:CHEMBL1090366

$$$$

Generated by Molecular Materials Informatics

 13 13  0  0  0  0  0  0  0  0999 V2000
   10.0983   -5.3734    0.0000 N   0  0  0  0  0  0  0  0  0  0  0  0
   11.3973   -4.6234    0.0000 C   0  0  0  0  0  0  0  0  0  0  0  0
   12.6963   -5.3734    0.0000 P   0  0  0  0  0  0  0  0  0  0  0  0
   11.3973   -3.1234    0.0000 C   0  0  0  0  0  0  0  0  0  0  0  0
   12.6963   -6.8734    0.0000 O   0  0  0  0  0  0  0  0  0  0  0  0
   13.9954   -4.6234    0.0000 O   0  0  0  0  0  0  0  0  0  0  0  0
   11.6356   -6.4339    0.0000 O   0  0  0  0  0  0  0  0  0  0  0  0
   10.0983   -2.3734    0.0000 C   0  0  0  0  0  0  0  0  0  0  0  0
   10.1032   -0.8714    0.0000 C   0  0  0  0  0  0  0  0  0  0  0  0
    8.8058   -0.1215    0.0000 C   0  0  0  0  0  0  0  0  0  0  0  0
    7.5051   -0.8715    0.0000 C   0  0  0  0  0  0  0  0  0  0  0  0
    7.5098   -2.3794    0.0000 C   0  0  0  0  0  0  0  0  0  0  0  0
    8.8083   -3.1224    0.0000 C   0  0  0  0  0  0  0  0  0  0  0  0
  3  7  2  0  0  0  0
  2  4  1  0  0  0  0
  4  8  1  0  0  0  0
  8  9  2  0  0  0  0
  3  5  1  0  0  0  0
  9 10  1  0  0  0  0
  2  3  1  0  0  0  0
 10 11  2  0  0  0  0
  3  6  1  0  0  0  0
 11 12  1  0  0  0  0
  1  2  1  0  0  0  0
 12 13  2  0  0  0  0
 13  8  1  0  0  0  0
M  END
> <Value>
4.267606240177032

> <Relation>
=

> <SourceURI>
mol:CHEMBL1090913

$$$$

Generated by Molecular Materials Informatics

 14 14  0  0  0  0  0  0  0  0999 V2000
   15.6655   -6.4660    0.0000 N   0  0  0  0  0  0  0  0  0  0  0  0
   16.9646   -5.7160    0.0000 C   0  0  0  0  0  0  0  0  0  0  0  0
   18.2635   -6.4660    0.0000 P   0  0  0  0  0  0  0  0  0  0  0  0
   16.9646   -4.2160    0.0000 C   0  0  0  0  0  0  0  0  0  0  0  0
   18.2635   -7.9660    0.0000 O   0  0  0  0  0  0  0  0  0  0  0  0
   19.5626   -5.7160    0.0000 O   0  0  0  0  0  0  0  0  0  0  0  0
   17.2030   -7.5265    0.0000 O   0  0  0  0  0  0  0  0  0  0  0  0
   15.6655   -3.4660    0.0000 C   0  0  0  0  0  0  0  0  0  0  0  0
   15.6655   -1.9660    0.0000 C   0  0  0  0  0  0  0  0  0  0  0  0
   16.9688   -1.2192    0.0000 C   0  0  0  0  0  0  0  0  0  0  0  0
   16.9694    0.2793    0.0000 C   0  0  0  0  0  0  0  0  0  0  0  0
   15.6693    1.0308    0.0000 C   0  0  0  0  0  0  0  0  0  0  0  0
   14.3661    0.2728    0.0000 C   0  0  0  0  0  0  0  0  0  0  0  0
   14.3719   -1.2234    0.0000 C   0  0  0  0  0  0  0  0  0  0  0  0
  2  4  1  0  0  0  0
  4  8  1  0  0  0  0
  8  9  1  0  0  0  0
  3  5  1  0  0  0  0
  9 10  2  0  0  0  0
  2  3  1  0  0  0  0
 10 11  1  0  0  0  0
  3  6  1  0  0  0  0
 11 12  2  0  0  0  0
  1  2  1  0  0  0  0
 12 13  1  0  0  0  0
  3  7  2  0  0  0  0
 13 14  2  0  0  0  0
 14  9  1  0  0  0  0
M  END
> <Value>
4.337242168318426

> <Relation>
=

> <SourceURI>
mol:CHEMBL1090914

$$$$

Generated by Molecular Materials Informatics

 15 15  0  0  0  0  0  0  0  0999 V2000
    9.1722   -8.5433    0.0000 N   0  0  0  0  0  0  0  0  0  0  0  0
   10.4713   -7.7933    0.0000 C   0  0  0  0  0  0  0  0  0  0  0  0
   11.7702   -8.5433    0.0000 P   0  0  0  0  0  0  0  0  0  0  0  0
   10.4713   -6.2933    0.0000 C   0  0  0  0  0  0  0  0  0  0  0  0
   11.7702  -10.0433    0.0000 O   0  0  0  0  0  0  0  0  0  0  0  0
   13.0693   -7.7933    0.0000 O   0  0  0  0  0  0  0  0  0  0  0  0
   10.7097   -9.6041    0.0000 O   0  0  0  0  0  0  0  0  0  0  0  0
   14.3684   -8.5433    0.0000 C   0  0  0  0  0  0  0  0  0  0  0  0
   14.3642  -10.0453    0.0000 C   0  0  0  0  0  0  0  0  0  0  0  0
   15.6617  -10.7952    0.0000 C   0  0  0  0  0  0  0  0  0  0  0  0
   16.9624  -10.0450    0.0000 C   0  0  0  0  0  0  0  0  0  0  0  0
   16.9577   -8.5373    0.0000 C   0  0  0  0  0  0  0  0  0  0  0  0
   15.6591   -7.7943    0.0000 C   0  0  0  0  0  0  0  0  0  0  0  0
    9.1722   -5.5433    0.0000 C   0  0  0  0  0  0  0  0  0  0  0  0
   11.7702   -5.5433    0.0000 C   0  0  0  0  0  0  0  0  0  0  0  0
  6  8  1  0  0  0  0
  8  9  2  0  0  0  0
  3  5  1  0  0  0  0
  9 10  1  0  0  0  0
  2  3  1  0  0  0  0
 10 11  2  0  0  0  0
  3  6  1  0  0  0  0
 11 12  1  0  0  0  0
  1  2  1  0  0  0  0
 12 13  2  0  0  0  0
 13  8  1  0  0  0  0
  3  7  2  0  0  0  0
  4 14  1  0  0  0  0
  2  4  1  0  0  0  0
  4 15  1  0  0  0  0
M  END
> <Value>
4.853871964321762

> <Relation>
=

> <SourceURI>
mol:CHEMBL1090915

$$$$

Generated by Molecular Materials Informatics

 17 17  0  0  0  0  0  0  0  0999 V2000
   16.0222   -9.0141    0.0000 N   0  0  0  0  0  0  0  0  0  0  0  0
   17.3213   -8.2641    0.0000 C   0  0  0  0  0  0  0  0  0  0  0  0
   18.6202   -9.0141    0.0000 P   0  0  0  0  0  0  0  0  0  0  0  0
   17.3213   -6.7641    0.0000 C   0  0  0  0  0  0  0  0  0  0  0  0
   18.6202  -10.5141    0.0000 O   0  0  0  0  0  0  0  0  0  0  0  0
   19.9193   -8.2641    0.0000 O   0  0  0  0  0  0  0  0  0  0  0  0
   17.5597  -10.0749    0.0000 O   0  0  0  0  0  0  0  0  0  0  0  0
   21.2184   -9.0141    0.0000 C   0  0  0  0  0  0  0  0  0  0  0  0
   21.2142  -10.5161    0.0000 C   0  0  0  0  0  0  0  0  0  0  0  0
   22.5117  -11.2660    0.0000 C   0  0  0  0  0  0  0  0  0  0  0  0
   23.8124  -10.5160    0.0000 C   0  0  0  0  0  0  0  0  0  0  0  0
   23.8077   -9.0081    0.0000 C   0  0  0  0  0  0  0  0  0  0  0  0
   22.5091   -8.2650    0.0000 C   0  0  0  0  0  0  0  0  0  0  0  0
   16.0222   -6.0141    0.0000 C   0  0  0  0  0  0  0  0  0  0  0  0
   18.6202   -6.0141    0.0000 C   0  0  0  0  0  0  0  0  0  0  0  0
   16.0222   -4.5141    0.0000 C   0  0  0  0  0  0  0  0  0  0  0  0
   18.6202   -4.5141    0.0000 C   0  0  0  0  0  0  0  0  0  0  0  0
  8  9  2  0  0  0  0
  3  5  1  0  0  0  0
  9 10  1  0  0  0  0
  2  3  1  0  0  0  0
 10 11  2  0  0  0  0
  3  6  1  0  0  0  0
 11 12  1  0  0  0  0
  1  2  1  0  0  0  0
 12 13  2  0  0  0  0
 13  8  1  0  0  0  0
  3  7  2  0  0  0  0
  4 14  1  0  0  0  0
  2  4  1  0  0  0  0
  4 15  1  0  0  0  0
  6  8  1  0  0  0  0
 14 16  1  0  0  0  0
 15 17  1  0  0  0  0
M  END
> <Value>
4.0

> <Relation>
<

> <SourceURI>
mol:CHEMBL1093529

$$$$

Generated by Molecular Materials Informatics

 16 16  0  0  0  0  0  0  0  0999 V2000
   -6.1812  -17.4058    0.0000 N   0  0  0  0  0  0  0  0  0  0  0  0
   -4.8824  -16.6558    0.0000 C   0  0  0  0  0  0  0  0  0  0  0  0
   -3.5833  -17.4058    0.0000 P   0  0  0  0  0  0  0  0  0  0  0  0
   -4.8824  -15.1559    0.0000 C   0  0  0  0  0  0  0  0  0  0  0  0
   -3.5833  -18.9058    0.0000 O   0  0  0  0  0  0  0  0  0  0  0  0
   -2.2842  -16.6558    0.0000 O   0  0  0  0  0  0  0  0  0  0  0  0
   -4.6440  -18.4665    0.0000 O   0  0  0  0  0  0  0  0  0  0  0  0
   -0.9851  -17.4058    0.0000 C   0  0  0  0  0  0  0  0  0  0  0  0
   -0.9895  -18.9078    0.0000 C   0  0  0  0  0  0  0  0  0  0  0  0
    0.3079  -19.6576    0.0000 C   0  0  0  0  0  0  0  0  0  0  0  0
    1.6088  -18.9074    0.0000 C   0  0  0  0  0  0  0  0  0  0  0  0
    1.6041  -17.3998    0.0000 C   0  0  0  0  0  0  0  0  0  0  0  0
    0.3054  -16.6567    0.0000 C   0  0  0  0  0  0  0  0  0  0  0  0
   -6.1812  -14.4059    0.0000 C   0  0  0  0  0  0  0  0  0  0  0  0
   -6.1812  -12.9059    0.0000 C   0  0  0  0  0  0  0  0  0  0  0  0
   -7.4803  -15.1559    0.0000 C   0  0  0  0  0  0  0  0  0  0  0  0
  8  9  2  0  0  0  0
  3  5  1  0  0  0  0
  9 10  1  0  0  0  0
  2  3  1  0  0  0  0
 10 11  2  0  0  0  0
  3  6  1  0  0  0  0
 11 12  1  0  0  0  0
  1  2  1  0  0  0  0
 12 13  2  0  0  0  0
 13  8  1  0  0  0  0
  3  7  2  0  0  0  0
  4 14  1  0  0  0  0
  2  4  1  0  0  0  0
 14 15  1  0  0  0  0
  6  8  1  0  0  0  0
 14 16  1  0  0  0  0
M  END
> <Value>
5.031517051446065

> <Relation>
=

> <SourceURI>
mol:CHEMBL1093530

$$$$

Generated by Molecular Materials Informatics

 16 16  0  0  0  0  0  0  0  0999 V2000
    2.2728  -18.0954    0.0000 N   0  0  0  0  0  0  0  0  0  0  0  0
    3.5718  -17.3454    0.0000 C   0  0  0  0  0  0  0  0  0  0  0  0
    4.8709  -18.0954    0.0000 P   0  0  0  0  0  0  0  0  0  0  0  0
    3.5718  -15.8454    0.0000 C   0  0  0  0  0  0  0  0  0  0  0  0
    4.8709  -19.5953    0.0000 O   0  0  0  0  0  0  0  0  0  0  0  0
    6.1698  -17.3454    0.0000 O   0  0  0  0  0  0  0  0  0  0  0  0
    3.8102  -19.1561    0.0000 O   0  0  0  0  0  0  0  0  0  0  0  0
    7.4689  -18.0954    0.0000 C   0  0  0  0  0  0  0  0  0  0  0  0
    7.4647  -19.5973    0.0000 C   0  0  0  0  0  0  0  0  0  0  0  0
    8.7621  -20.3472    0.0000 C   0  0  0  0  0  0  0  0  0  0  0  0
   10.0630  -19.5972    0.0000 C   0  0  0  0  0  0  0  0  0  0  0  0
   10.0581  -18.0894    0.0000 C   0  0  0  0  0  0  0  0  0  0  0  0
    8.7596  -17.3463    0.0000 C   0  0  0  0  0  0  0  0  0  0  0  0
    2.2728  -15.0954    0.0000 C   0  0  0  0  0  0  0  0  0  0  0  0
    2.2728  -13.5954    0.0000 C   0  0  0  0  0  0  0  0  0  0  0  0
    0.9739  -12.8454    0.0000 C   0  0  0  0  0  0  0  0  0  0  0  0
  8  9  2  0  0  0  0
  3  5  1  0  0  0  0
  9 10  1  0  0  0  0
  2  3  1  0  0  0  0
 10 11  2  0  0  0  0
  3  6  1  0  0  0  0
 11 12  1  0  0  0  0
  1  2  1  0  0  0  0
 12 13  2  0  0  0  0
 13  8  1  0  0  0  0
  3  7  2  0  0  0  0
  4 14  1  0  0  0  0
  2  4  1  0  0  0  0
 14 15  1  0  0  0  0
  6  8  1  0  0  0  0
 15 16  1  0  0  0  0
M  END
> <Value>
5.251811972993799

> <Relation>
=

> <SourceURI>
mol:CHEMBL1090367

$$$$

Generated by Molecular Materials Informatics

 17 17  0  0  0  0  0  0  0  0999 V2000
    9.8520  -18.5871    0.0000 N   0  0  0  0  0  0  0  0  0  0  0  0
   11.1511  -17.8371    0.0000 C   0  0  0  0  0  0  0  0  0  0  0  0
   12.4500  -18.5871    0.0000 P   0  0  0  0  0  0  0  0  0  0  0  0
   11.1511  -16.3371    0.0000 C   0  0  0  0  0  0  0  0  0  0  0  0
   12.4500  -20.0871    0.0000 O   0  0  0  0  0  0  0  0  0  0  0  0
   13.7491  -17.8371    0.0000 O   0  0  0  0  0  0  0  0  0  0  0  0
   11.3895  -19.6478    0.0000 O   0  0  0  0  0  0  0  0  0  0  0  0
   15.0482  -18.5871    0.0000 C   0  0  0  0  0  0  0  0  0  0  0  0
   15.0440  -20.0891    0.0000 C   0  0  0  0  0  0  0  0  0  0  0  0
   16.3415  -20.8389    0.0000 C   0  0  0  0  0  0  0  0  0  0  0  0
   17.6422  -20.0887    0.0000 C   0  0  0  0  0  0  0  0  0  0  0  0
   17.6375  -18.5811    0.0000 C   0  0  0  0  0  0  0  0  0  0  0  0
   16.3389  -17.8380    0.0000 C   0  0  0  0  0  0  0  0  0  0  0  0
    9.8520  -15.5871    0.0000 C   0  0  0  0  0  0  0  0  0  0  0  0
    9.8520  -14.0871    0.0000 C   0  0  0  0  0  0  0  0  0  0  0  0
    8.5529  -13.3371    0.0000 C   0  0  0  0  0  0  0  0  0  0  0  0
    8.5529  -11.8371    0.0000 C   0  0  0  0  0  0  0  0  0  0  0  0
  8  9  2  0  0  0  0
  3  5  1  0  0  0  0
  9 10  1  0  0  0  0
  2  3  1  0  0  0  0
 10 11  2  0  0  0  0
  3  6  1  0  0  0  0
 11 12  1  0  0  0  0
  1  2  1  0  0  0  0
 12 13  2  0  0  0  0
 13  8  1  0  0  0  0
  3  7  2  0  0  0  0
  4 14  1  0  0  0  0
  2  4  1  0  0  0  0
 14 15  1  0  0  0  0
  6  8  1  0  0  0  0
 15 16  1  0  0  0  0
 16 17  1  0  0  0  0
M  END
> <Value>
5.318758762624412

> <Relation>
=

> <SourceURI>
mol:CHEMBL1093531

$$$$

Generated by Molecular Materials Informatics

 18 19  0  0  0  0  0  0  0  0999 V2000
   15.7014  -18.8649    0.0000 N   0  0  0  0  0  0  0  0  0  0  0  0
   17.0003  -18.1149    0.0000 C   0  0  0  0  0  0  0  0  0  0  0  0
   18.2994  -18.8649    0.0000 P   0  0  0  0  0  0  0  0  0  0  0  0
   17.0003  -16.6149    0.0000 C   0  0  0  0  0  0  0  0  0  0  0  0
   18.2994  -20.3649    0.0000 O   0  0  0  0  0  0  0  0  0  0  0  0
   19.5985  -18.1149    0.0000 O   0  0  0  0  0  0  0  0  0  0  0  0
   17.2387  -19.9254    0.0000 O   0  0  0  0  0  0  0  0  0  0  0  0
   20.8976  -18.8649    0.0000 C   0  0  0  0  0  0  0  0  0  0  0  0
   20.8932  -20.3667    0.0000 C   0  0  0  0  0  0  0  0  0  0  0  0
   22.1907  -21.1167    0.0000 C   0  0  0  0  0  0  0  0  0  0  0  0
   23.4916  -20.3665    0.0000 C   0  0  0  0  0  0  0  0  0  0  0  0
   23.4869  -18.8587    0.0000 C   0  0  0  0  0  0  0  0  0  0  0  0
   22.1881  -18.1158    0.0000 C   0  0  0  0  0  0  0  0  0  0  0  0
   18.3054  -15.8712    0.0000 C   0  0  0  0  0  0  0  0  0  0  0  0
   18.3061  -14.3727    0.0000 C   0  0  0  0  0  0  0  0  0  0  0  0
   17.0061  -13.6212    0.0000 C   0  0  0  0  0  0  0  0  0  0  0  0
   15.7027  -14.3792    0.0000 C   0  0  0  0  0  0  0  0  0  0  0  0
   15.7085  -15.8754    0.0000 C   0  0  0  0  0  0  0  0  0  0  0  0
  3  5  1  0  0  0  0
  9 10  1  0  0  0  0
  2  3  1  0  0  0  0
 10 11  2  0  0  0  0
  3  6  1  0  0  0  0
 11 12  1  0  0  0  0
  1  2  1  0  0  0  0
 12 13  2  0  0  0  0
 13  8  1  0  0  0  0
  3  7  2  0  0  0  0
  4 14  2  0  0  0  0
  2  4  1  0  0  0  0
 14 15  1  0  0  0  0
  6  8  1  0  0  0  0
 15 16  2  0  0  0  0
 16 17  1  0  0  0  0
  8  9  2  0  0  0  0
 17 18  2  0  0  0  0
 18  4  1  0  0  0  0
M  END
> <Value>
4.6777807052660805

> <Relation>
=

> <SourceURI>
mol:CHEMBL1090689

$$$$

Generated by Molecular Materials Informatics

 19 20  0  0  0  0  0  0  0  0999 V2000
   -5.3276  -26.1000    0.0000 N   0  0  0  0  0  0  0  0  0  0  0  0
   -4.0287  -25.3500    0.0000 C   0  0  0  0  0  0  0  0  0  0  0  0
   -2.7296  -26.1000    0.0000 P   0  0  0  0  0  0  0  0  0  0  0  0
   -4.0287  -23.8500    0.0000 C   0  0  0  0  0  0  0  0  0  0  0  0
   -2.7296  -27.6000    0.0000 O   0  0  0  0  0  0  0  0  0  0  0  0
   -1.4305  -25.3500    0.0000 O   0  0  0  0  0  0  0  0  0  0  0  0
   -3.7903  -27.1607    0.0000 O   0  0  0  0  0  0  0  0  0  0  0  0
   -0.1315  -26.1000    0.0000 C   0  0  0  0  0  0  0  0  0  0  0  0
   -0.1358  -27.6020    0.0000 C   0  0  0  0  0  0  0  0  0  0  0  0
    1.1616  -28.3518    0.0000 C   0  0  0  0  0  0  0  0  0  0  0  0
    2.4625  -27.6016    0.0000 C   0  0  0  0  0  0  0  0  0  0  0  0
    2.4578  -26.0940    0.0000 C   0  0  0  0  0  0  0  0  0  0  0  0
    1.1591  -25.3509    0.0000 C   0  0  0  0  0  0  0  0  0  0  0  0
   -5.3276  -23.1000    0.0000 C   0  0  0  0  0  0  0  0  0  0  0  0
   -5.3227  -21.5980    0.0000 C   0  0  0  0  0  0  0  0  0  0  0  0
   -6.6201  -20.8482    0.0000 C   0  0  0  0  0  0  0  0  0  0  0  0
   -7.9208  -21.5984    0.0000 C   0  0  0  0  0  0  0  0  0  0  0  0
   -7.9161  -23.1060    0.0000 C   0  0  0  0  0  0  0  0  0  0  0  0
   -6.6175  -23.8491    0.0000 C   0  0  0  0  0  0  0  0  0  0  0  0
  9 10  1  0  0  0  0
  2  3  1  0  0  0  0
 10 11  2  0  0  0  0
  3  6  1  0  0  0  0
 11 12  1  0  0  0  0
  1  2  1  0  0  0  0
 12 13  2  0  0  0  0
 13  8  1  0  0  0  0
  3  7  2  0  0  0  0
  4 14  1  0  0  0  0
  2  4  1  0  0  0  0
 14 15  2  0  0  0  0
  6  8  1  0  0  0  0
 15 16  1  0  0  0  0
 16 17  2  0  0  0  0
  8  9  2  0  0  0  0
 17 18  1  0  0  0  0
  3  5  1  0  0  0  0
 18 19  2  0  0  0  0
 19 14  1  0  0  0  0
M  END
> <Value>
5.086186147616283

> <Relation>
=

> <SourceURI>
mol:CHEMBL1093247

$$$$

Generated by Molecular Materials Informatics

 20 21  0  0  0  0  0  0  0  0999 V2000
    2.8021  -26.5676    0.0000 N   0  0  0  0  0  0  0  0  0  0  0  0
    4.1012  -25.8176    0.0000 C   0  0  0  0  0  0  0  0  0  0  0  0
    5.4001  -26.5676    0.0000 P   0  0  0  0  0  0  0  0  0  0  0  0
    4.1012  -24.3176    0.0000 C   0  0  0  0  0  0  0  0  0  0  0  0
    5.4001  -28.0676    0.0000 O   0  0  0  0  0  0  0  0  0  0  0  0
    6.6992  -25.8176    0.0000 O   0  0  0  0  0  0  0  0  0  0  0  0
    4.3395  -27.6283    0.0000 O   0  0  0  0  0  0  0  0  0  0  0  0
    7.9983  -26.5676    0.0000 C   0  0  0  0  0  0  0  0  0  0  0  0
    7.9941  -28.0696    0.0000 C   0  0  0  0  0  0  0  0  0  0  0  0
    9.2915  -28.8194    0.0000 C   0  0  0  0  0  0  0  0  0  0  0  0
   10.5923  -28.0692    0.0000 C   0  0  0  0  0  0  0  0  0  0  0  0
   10.5875  -26.5616    0.0000 C   0  0  0  0  0  0  0  0  0  0  0  0
    9.2890  -25.8185    0.0000 C   0  0  0  0  0  0  0  0  0  0  0  0
    2.8021  -23.5676    0.0000 C   0  0  0  0  0  0  0  0  0  0  0  0
    2.8021  -22.0676    0.0000 C   0  0  0  0  0  0  0  0  0  0  0  0
    4.1054  -21.3211    0.0000 C   0  0  0  0  0  0  0  0  0  0  0  0
    4.1059  -19.8223    0.0000 C   0  0  0  0  0  0  0  0  0  0  0  0
    2.8059  -19.0709    0.0000 C   0  0  0  0  0  0  0  0  0  0  0  0
    1.5026  -19.8289    0.0000 C   0  0  0  0  0  0  0  0  0  0  0  0
    1.5085  -21.3251    0.0000 C   0  0  0  0  0  0  0  0  0  0  0  0
  2  3  1  0  0  0  0
 10 11  2  0  0  0  0
  3  6  1  0  0  0  0
 11 12  1  0  0  0  0
  1  2  1  0  0  0  0
 12 13  2  0  0  0  0
 13  8  1  0  0  0  0
  3  7  2  0  0  0  0
  4 14  1  0  0  0  0
  2  4  1  0  0  0  0
 14 15  1  0  0  0  0
  6  8  1  0  0  0  0
 15 16  2  0  0  0  0
 16 17  1  0  0  0  0
  8  9  2  0  0  0  0
 17 18  2  0  0  0  0
  3  5  1  0  0  0  0
 18 19  1  0  0  0  0
  9 10  1  0  0  0  0
 19 20  2  0  0  0  0
 20 15  1  0  0  0  0
M  END
> <Value>
5.207608310501746

> <Relation>
=

> <SourceURI>
mol:CHEMBL1093248

$$$$

Generated by Molecular Materials Informatics

 15 15  0  0  0  0  0  0  0  0999 V2000
   -2.0332   -3.1875    0.0000 N   0  0  0  0  0  0  0  0  0  0  0  0
   -0.7341   -2.4375    0.0000 C   0  0  0  0  0  0  0  0  0  0  0  0
    0.5648   -3.1875    0.0000 P   0  0  0  0  0  0  0  0  0  0  0  0
   -0.7341   -0.9375    0.0000 C   0  0  0  0  0  0  0  0  0  0  0  0
    0.5648   -4.6875    0.0000 O   0  0  0  0  0  0  0  0  0  0  0  0
    1.8639   -2.4375    0.0000 O   0  0  0  0  0  0  0  0  0  0  0  0
   -0.4958   -4.2483    0.0000 O   0  0  0  0  0  0  0  0  0  0  0  0
    3.1629   -3.1875    0.0000 C   0  0  0  0  0  0  0  0  0  0  0  0
    3.1588   -4.6895    0.0000 C   0  0  0  0  0  0  0  0  0  0  0  0
    4.4562   -5.4394    0.0000 C   0  0  0  0  0  0  0  0  0  0  0  0
    5.7569   -4.6892    0.0000 C   0  0  0  0  0  0  0  0  0  0  0  0
    5.7522   -3.1815    0.0000 C   0  0  0  0  0  0  0  0  0  0  0  0
    4.4537   -2.4384    0.0000 C   0  0  0  0  0  0  0  0  0  0  0  0
    7.0569   -5.4374    0.0000 C   0  0  0  0  0  0  0  0  0  0  0  0
    7.0589   -6.9374    0.0000 C   0  0  0  0  0  0  0  0  0  0  0  0
  2  4  1  0  0  0  0
  6  8  1  0  0  0  0
  8  9  2  0  0  0  0
  3  5  1  0  0  0  0
  9 10  1  0  0  0  0
  2  3  1  0  0  0  0
 10 11  2  0  0  0  0
  3  6  1  0  0  0  0
 11 12  1  0  0  0  0
  1  2  1  0  0  0  0
 12 13  2  0  0  0  0
 13  8  1  0  0  0  0
 11 14  1  0  0  0  0
  3  7  2  0  0  0  0
 14 15  1  0  0  0  0
M  END
> <Value>
5.080921907623926

> <Relation>
=

> <SourceURI>
mol:CHEMBL1093249

$$$$

Generated by Molecular Materials Informatics

 17 17  0  0  0  0  0  0  0  0999 V2000
   -1.3956   -9.0708    0.0000 N   0  0  0  0  0  0  0  0  0  0  0  0
   -0.0967   -8.3208    0.0000 C   0  0  0  0  0  0  0  0  0  0  0  0
    1.2024   -9.0708    0.0000 P   0  0  0  0  0  0  0  0  0  0  0  0
   -0.0967   -6.8208    0.0000 C   0  0  0  0  0  0  0  0  0  0  0  0
    1.2024  -10.5708    0.0000 O   0  0  0  0  0  0  0  0  0  0  0  0
    2.5014   -8.3208    0.0000 O   0  0  0  0  0  0  0  0  0  0  0  0
    0.1416  -10.1315    0.0000 O   0  0  0  0  0  0  0  0  0  0  0  0
    3.8005   -9.0708    0.0000 C   0  0  0  0  0  0  0  0  0  0  0  0
    3.7962  -10.5728    0.0000 C   0  0  0  0  0  0  0  0  0  0  0  0
    5.0936  -11.3226    0.0000 C   0  0  0  0  0  0  0  0  0  0  0  0
    6.3945  -10.5726    0.0000 C   0  0  0  0  0  0  0  0  0  0  0  0
    6.3898   -9.0648    0.0000 C   0  0  0  0  0  0  0  0  0  0  0  0
    5.0911   -8.3217    0.0000 C   0  0  0  0  0  0  0  0  0  0  0  0
    7.6945  -11.3208    0.0000 C   0  0  0  0  0  0  0  0  0  0  0  0
    7.6965  -12.8208    0.0000 C   0  0  0  0  0  0  0  0  0  0  0  0
    8.9925  -10.5692    0.0000 C   0  0  0  0  0  0  0  0  0  0  0  0
    8.9831  -12.0633    0.0000 C   0  0  0  0  0  0  0  0  0  0  0  0
  8  9  2  0  0  0  0
  3  5  1  0  0  0  0
  9 10  1  0  0  0  0
  2  3  1  0  0  0  0
 10 11  2  0  0  0  0
  3  6  1  0  0  0  0
 11 12  1  0  0  0  0
  1  2  1  0  0  0  0
 12 13  2  0  0  0  0
 13  8  1  0  0  0  0
  3  7  2  0  0  0  0
 11 14  1  0  0  0  0
  2  4  1  0  0  0  0
 14 15  1  0  0  0  0
  6  8  1  0  0  0  0
 14 16  1  0  0  0  0
 14 17  1  0  0  0  0
M  END
> <Value>
5.086186147616283

> <Relation>
=

> <SourceURI>
mol:CHEMBL1093250

$$$$

Generated by Molecular Materials Informatics

 16 16  0  0  0  0  0  0  0  0999 V2000
    5.6816   -9.1288    0.0000 N   0  0  0  0  0  0  0  0  0  0  0  0
    6.9807   -8.3788    0.0000 C   0  0  0  0  0  0  0  0  0  0  0  0
    8.2796   -9.1288    0.0000 P   0  0  0  0  0  0  0  0  0  0  0  0
    6.9807   -6.8788    0.0000 C   0  0  0  0  0  0  0  0  0  0  0  0
    8.2796  -10.6288    0.0000 O   0  0  0  0  0  0  0  0  0  0  0  0
    9.5787   -8.3788    0.0000 O   0  0  0  0  0  0  0  0  0  0  0  0
    7.2190  -10.1893    0.0000 O   0  0  0  0  0  0  0  0  0  0  0  0
   10.8778   -9.1288    0.0000 C   0  0  0  0  0  0  0  0  0  0  0  0
   10.8736  -10.6306    0.0000 C   0  0  0  0  0  0  0  0  0  0  0  0
   12.1710  -11.3806    0.0000 C   0  0  0  0  0  0  0  0  0  0  0  0
   13.4718  -10.6304    0.0000 C   0  0  0  0  0  0  0  0  0  0  0  0
   13.4670   -9.1226    0.0000 C   0  0  0  0  0  0  0  0  0  0  0  0
   12.1685   -8.3797    0.0000 C   0  0  0  0  0  0  0  0  0  0  0  0
   12.1638   -6.8797    0.0000 C   0  0  0  0  0  0  0  0  0  0  0  0
   14.7634   -8.3681    0.0000 C   0  0  0  0  0  0  0  0  0  0  0  0
   12.1703  -12.8806    0.0000 C   0  0  0  0  0  0  0  0  0  0  0  0
  8  9  2  0  0  0  0
  3  5  1  0  0  0  0
  9 10  1  0  0  0  0
  2  3  1  0  0  0  0
 10 11  2  0  0  0  0
  3  6  1  0  0  0  0
 11 12  1  0  0  0  0
  1  2  1  0  0  0  0
 12 13  2  0  0  0  0
 13  8  1  0  0  0  0
  3  7  2  0  0  0  0
 13 14  1  0  0  0  0
  2  4  1  0  0  0  0
 12 15  1  0  0  0  0
  6  8  1  0  0  0  0
 10 16  1  0  0  0  0
M  END
> <Value>
4.853871964321762

> <Relation>
=

> <SourceURI>
mol:CHEMBL1090690

$$$$

Generated by Molecular Materials Informatics

 15 15  0  0  0  0  0  0  0  0999 V2000
   12.2423   -9.6350    0.0000 N   0  0  0  0  0  0  0  0  0  0  0  0
   13.5414   -8.8851    0.0000 C   0  0  0  0  0  0  0  0  0  0  0  0
   14.8402   -9.6350    0.0000 P   0  0  0  0  0  0  0  0  0  0  0  0
   13.5414   -7.3851    0.0000 C   0  0  0  0  0  0  0  0  0  0  0  0
   14.8402  -11.1350    0.0000 O   0  0  0  0  0  0  0  0  0  0  0  0
   16.1393   -8.8851    0.0000 O   0  0  0  0  0  0  0  0  0  0  0  0
   13.7797  -10.6955    0.0000 O   0  0  0  0  0  0  0  0  0  0  0  0
   17.4383   -9.6350    0.0000 C   0  0  0  0  0  0  0  0  0  0  0  0
   17.4342  -11.1368    0.0000 C   0  0  0  0  0  0  0  0  0  0  0  0
   18.7316  -11.8868    0.0000 C   0  0  0  0  0  0  0  0  0  0  0  0
   20.0323  -11.1366    0.0000 C   0  0  0  0  0  0  0  0  0  0  0  0
   20.0275   -9.6288    0.0000 C   0  0  0  0  0  0  0  0  0  0  0  0
   18.7290   -8.8860    0.0000 C   0  0  0  0  0  0  0  0  0  0  0  0
   21.3324  -11.8850    0.0000 C   0  0  0  0  0  0  0  0  0  0  0  0
   12.2423   -6.6351    0.0000 C   0  0  0  0  0  0  0  0  0  0  0  0
  6  8  1  0  0  0  0
  8  9  2  0  0  0  0
  3  5  1  0  0  0  0
  9 10  1  0  0  0  0
  2  3  1  0  0  0  0
 10 11  2  0  0  0  0
  3  6  1  0  0  0  0
 11 12  1  0  0  0  0
  1  2  1  0  0  0  0
 12 13  2  0  0  0  0
 13  8  1  0  0  0  0
  3  7  2  0  0  0  0
 11 14  1  0  0  0  0
  2  4  1  0  0  0  0
  4 15  1  0  0  0  0
M  END
> <Value>
5.154901959985743

> <Relation>
=

> <SourceURI>
mol:CHEMBL1093251

$$$$

Generated by Molecular Materials Informatics

 16 16  0  0  0  0  0  0  0  0999 V2000
   -7.5245  -14.6725    0.0000 N   0  0  0  0  0  0  0  0  0  0  0  0
   -6.2254  -13.9225    0.0000 C   0  0  0  0  0  0  0  0  0  0  0  0
   -4.9263  -14.6725    0.0000 P   0  0  0  0  0  0  0  0  0  0  0  0
   -6.2254  -12.4226    0.0000 C   0  0  0  0  0  0  0  0  0  0  0  0
   -4.9263  -16.1725    0.0000 O   0  0  0  0  0  0  0  0  0  0  0  0
   -3.6274  -13.9225    0.0000 O   0  0  0  0  0  0  0  0  0  0  0  0
   -5.9871  -15.7331    0.0000 O   0  0  0  0  0  0  0  0  0  0  0  0
   -2.3284  -14.6725    0.0000 C   0  0  0  0  0  0  0  0  0  0  0  0
   -2.3325  -16.1743    0.0000 C   0  0  0  0  0  0  0  0  0  0  0  0
   -1.0351  -16.9243    0.0000 C   0  0  0  0  0  0  0  0  0  0  0  0
    0.2658  -16.1742    0.0000 C   0  0  0  0  0  0  0  0  0  0  0  0
    0.2609  -14.6664    0.0000 C   0  0  0  0  0  0  0  0  0  0  0  0
   -1.0376  -13.9235    0.0000 C   0  0  0  0  0  0  0  0  0  0  0  0
    1.5658  -16.9225    0.0000 C   0  0  0  0  0  0  0  0  0  0  0  0
   -7.5245  -11.6726    0.0000 C   0  0  0  0  0  0  0  0  0  0  0  0
    1.5573  -13.9118    0.0000 C   0  0  0  0  0  0  0  0  0  0  0  0
  8  9  2  0  0  0  0
  3  5  1  0  0  0  0
  9 10  1  0  0  0  0
  2  3  1  0  0  0  0
 10 11  2  0  0  0  0
  3  6  1  0  0  0  0
 11 12  1  0  0  0  0
  1  2  1  0  0  0  0
 12 13  2  0  0  0  0
 13  8  1  0  0  0  0
  3  7  2  0  0  0  0
 11 14  1  0  0  0  0
  2  4  1  0  0  0  0
  4 15  1  0  0  0  0
  6  8  1  0  0  0  0
 12 16  1  0  0  0  0
M  END
> <Value>
5.522878745280337

> <Relation>
=

> <SourceURI>
mol:CHEMBL1093257

$$$$

Generated by Molecular Materials Informatics

 16 16  0  0  0  0  0  0  0  0999 V2000
    0.1055  -14.7058    0.0000 N   0  0  0  0  0  0  0  0  0  0  0  0
    1.4046  -13.9559    0.0000 C   0  0  0  0  0  0  0  0  0  0  0  0
    2.7037  -14.7058    0.0000 P   0  0  0  0  0  0  0  0  0  0  0  0
    1.4046  -12.4559    0.0000 C   0  0  0  0  0  0  0  0  0  0  0  0
    2.7037  -16.2058    0.0000 O   0  0  0  0  0  0  0  0  0  0  0  0
    4.0026  -13.9559    0.0000 O   0  0  0  0  0  0  0  0  0  0  0  0
    1.6430  -15.7666    0.0000 O   0  0  0  0  0  0  0  0  0  0  0  0
    5.3016  -14.7058    0.0000 C   0  0  0  0  0  0  0  0  0  0  0  0
    5.2974  -16.2078    0.0000 C   0  0  0  0  0  0  0  0  0  0  0  0
    6.5949  -16.9576    0.0000 C   0  0  0  0  0  0  0  0  0  0  0  0
    7.8958  -16.2075    0.0000 C   0  0  0  0  0  0  0  0  0  0  0  0
    7.8909  -14.6998    0.0000 C   0  0  0  0  0  0  0  0  0  0  0  0
    6.5923  -13.9568    0.0000 C   0  0  0  0  0  0  0  0  0  0  0  0
    0.1055  -11.7059    0.0000 C   0  0  0  0  0  0  0  0  0  0  0  0
    6.5878  -12.4568    0.0000 C   0  0  0  0  0  0  0  0  0  0  0  0
    6.5941  -18.4576    0.0000 C   0  0  0  0  0  0  0  0  0  0  0  0
  8  9  2  0  0  0  0
  3  5  1  0  0  0  0
  9 10  1  0  0  0  0
  2  3  1  0  0  0  0
 10 11  2  0  0  0  0
  3  6  1  0  0  0  0
 11 12  1  0  0  0  0
  1  2  1  0  0  0  0
 12 13  2  0  0  0  0
 13  8  1  0  0  0  0
  3  7  2  0  0  0  0
  4 14  1  0  0  0  0
  2  4  1  0  0  0  0
 13 15  1  0  0  0  0
  6  8  1  0  0  0  0
 10 16  1  0  0  0  0
M  END
> <Value>
3.9208187539523753

> <Relation>
=

> <SourceURI>
mol:CHEMBL1090693

$$$$

Generated by Molecular Materials Informatics

 18 18  0  0  0  0  0  0  0  0999 V2000
    5.9834  -14.2605    0.0000 N   0  0  0  0  0  0  0  0  0  0  0  0
    7.2825  -13.5105    0.0000 C   0  0  0  0  0  0  0  0  0  0  0  0
    8.5816  -14.2605    0.0000 P   0  0  0  0  0  0  0  0  0  0  0  0
    7.2825  -12.0105    0.0000 C   0  0  0  0  0  0  0  0  0  0  0  0
    8.5816  -15.7604    0.0000 O   0  0  0  0  0  0  0  0  0  0  0  0
    9.8805  -13.5105    0.0000 O   0  0  0  0  0  0  0  0  0  0  0  0
    7.5209  -15.3210    0.0000 O   0  0  0  0  0  0  0  0  0  0  0  0
   11.1796  -14.2605    0.0000 C   0  0  0  0  0  0  0  0  0  0  0  0
   11.1754  -15.7623    0.0000 C   0  0  0  0  0  0  0  0  0  0  0  0
   12.4729  -16.5123    0.0000 C   0  0  0  0  0  0  0  0  0  0  0  0
   13.7738  -15.7621    0.0000 C   0  0  0  0  0  0  0  0  0  0  0  0
   13.7689  -14.2543    0.0000 C   0  0  0  0  0  0  0  0  0  0  0  0
   12.4703  -13.5114    0.0000 C   0  0  0  0  0  0  0  0  0  0  0  0
   15.0738  -16.5104    0.0000 C   0  0  0  0  0  0  0  0  0  0  0  0
    5.9834  -11.2605    0.0000 C   0  0  0  0  0  0  0  0  0  0  0  0
   15.0758  -18.0104    0.0000 C   0  0  0  0  0  0  0  0  0  0  0  0
   16.3718  -15.7586    0.0000 C   0  0  0  0  0  0  0  0  0  0  0  0
   16.1274  -17.5633    0.0000 C   0  0  0  0  0  0  0  0  0  0  0  0
  3  5  1  0  0  0  0
  9 10  1  0  0  0  0
  2  3  1  0  0  0  0
 10 11  2  0  0  0  0
  3  6  1  0  0  0  0
 11 12  1  0  0  0  0
  1  2  1  0  0  0  0
 12 13  2  0  0  0  0
 13  8  1  0  0  0  0
  3  7  2  0  0  0  0
 11 14  1  0  0  0  0
  2  4  1  0  0  0  0
  4 15  1  0  0  0  0
  6  8  1  0  0  0  0
 14 16  1  0  0  0  0
 14 17  1  0  0  0  0
  8  9  2  0  0  0  0
 14 18  1  0  0  0  0
M  END
> <Value>
5.958607314841775

> <Relation>
=

> <SourceURI>
mol:CHEMBL1094909

$$$$

Generated by Molecular Materials Informatics

 17 17  0  0  0  0  0  0  0  0999 V2000
   12.0709  -14.2646    0.0000 N   0  0  0  0  0  0  0  0  0  0  0  0
   13.3700  -13.5146    0.0000 C   0  0  0  0  0  0  0  0  0  0  0  0
   14.6691  -14.2646    0.0000 P   0  0  0  0  0  0  0  0  0  0  0  0
   13.3700  -12.0146    0.0000 C   0  0  0  0  0  0  0  0  0  0  0  0
   14.6691  -15.7645    0.0000 O   0  0  0  0  0  0  0  0  0  0  0  0
   15.9680  -13.5146    0.0000 O   0  0  0  0  0  0  0  0  0  0  0  0
   13.6084  -15.3253    0.0000 O   0  0  0  0  0  0  0  0  0  0  0  0
   17.2671  -14.2646    0.0000 C   0  0  0  0  0  0  0  0  0  0  0  0
   17.2629  -15.7666    0.0000 C   0  0  0  0  0  0  0  0  0  0  0  0
   18.5604  -16.5164    0.0000 C   0  0  0  0  0  0  0  0  0  0  0  0
   19.8613  -15.7664    0.0000 C   0  0  0  0  0  0  0  0  0  0  0  0
   19.8564  -14.2586    0.0000 C   0  0  0  0  0  0  0  0  0  0  0  0
   18.5578  -13.5155    0.0000 C   0  0  0  0  0  0  0  0  0  0  0  0
   21.1613  -16.5145    0.0000 C   0  0  0  0  0  0  0  0  0  0  0  0
   12.0709  -11.2646    0.0000 C   0  0  0  0  0  0  0  0  0  0  0  0
   21.1633  -18.0145    0.0000 O   0  0  0  0  0  0  0  0  0  0  0  0
   22.4593  -15.7629    0.0000 O   0  0  0  0  0  0  0  0  0  0  0  0
  8  9  2  0  0  0  0
  3  5  1  0  0  0  0
  9 10  1  0  0  0  0
  2  3  1  0  0  0  0
 10 11  2  0  0  0  0
  3  6  1  0  0  0  0
 11 12  1  0  0  0  0
  1  2  1  0  0  0  0
 12 13  2  0  0  0  0
 13  8  1  0  0  0  0
  3  7  2  0  0  0  0
 11 14  1  0  0  0  0
  2  4  1  0  0  0  0
  4 15  1  0  0  0  0
  6  8  1  0  0  0  0
 14 16  2  0  0  0  0
 14 17  1  0  0  0  0
M  END
> <Value>
3.6989700043360187

> <Relation>
=

> <SourceURI>
mol:CHEMBL1095232

$$$$

Generated by Molecular Materials Informatics

 17 17  0  0  0  0  0  0  0  0999 V2000
   -6.8573  -20.6913    0.0000 N   0  0  0  0  0  0  0  0  0  0  0  0
   -5.5582  -19.9413    0.0000 C   0  0  0  0  0  0  0  0  0  0  0  0
   -4.2591  -20.6913    0.0000 P   0  0  0  0  0  0  0  0  0  0  0  0
   -5.5582  -18.4413    0.0000 C   0  0  0  0  0  0  0  0  0  0  0  0
   -4.2591  -22.1913    0.0000 O   0  0  0  0  0  0  0  0  0  0  0  0
   -2.9602  -19.9413    0.0000 O   0  0  0  0  0  0  0  0  0  0  0  0
   -5.3198  -21.7518    0.0000 O   0  0  0  0  0  0  0  0  0  0  0  0
   -1.6611  -20.6913    0.0000 C   0  0  0  0  0  0  0  0  0  0  0  0
   -1.6653  -22.1931    0.0000 C   0  0  0  0  0  0  0  0  0  0  0  0
   -0.3678  -22.9431    0.0000 C   0  0  0  0  0  0  0  0  0  0  0  0
    0.9331  -22.1929    0.0000 C   0  0  0  0  0  0  0  0  0  0  0  0
    0.9282  -20.6851    0.0000 C   0  0  0  0  0  0  0  0  0  0  0  0
   -0.3704  -19.9422    0.0000 C   0  0  0  0  0  0  0  0  0  0  0  0
    2.2331  -22.9413    0.0000 C   0  0  0  0  0  0  0  0  0  0  0  0
   -6.8573  -17.6913    0.0000 C   0  0  0  0  0  0  0  0  0  0  0  0
   -6.8573  -16.1913    0.0000 C   0  0  0  0  0  0  0  0  0  0  0  0
   -8.1562  -15.4413    0.0000 C   0  0  0  0  0  0  0  0  0  0  0  0
  8  9  2  0  0  0  0
  3  5  1  0  0  0  0
  9 10  1  0  0  0  0
  2  3  1  0  0  0  0
 10 11  2  0  0  0  0
  3  6  1  0  0  0  0
 11 12  1  0  0  0  0
  1  2  1  0  0  0  0
 12 13  2  0  0  0  0
 13  8  1  0  0  0  0
  3  7  2  0  0  0  0
 11 14  1  0  0  0  0
  2  4  1  0  0  0  0
  4 15  1  0  0  0  0
  6  8  1  0  0  0  0
 15 16  1  0  0  0  0
 16 17  1  0  0  0  0
M  END
> <Value>
6.0

> <Relation>
=

> <SourceURI>
mol:CHEMBL1095233

$$$$

Generated by Molecular Materials Informatics

 18 18  0  0  0  0  0  0  0  0999 V2000
    0.5720  -20.7954    0.0000 N   0  0  0  0  0  0  0  0  0  0  0  0
    1.8711  -20.0454    0.0000 C   0  0  0  0  0  0  0  0  0  0  0  0
    3.1700  -20.7954    0.0000 P   0  0  0  0  0  0  0  0  0  0  0  0
    1.8711  -18.5454    0.0000 C   0  0  0  0  0  0  0  0  0  0  0  0
    3.1700  -22.2953    0.0000 O   0  0  0  0  0  0  0  0  0  0  0  0
    4.4691  -20.0454    0.0000 O   0  0  0  0  0  0  0  0  0  0  0  0
    2.1095  -21.8561    0.0000 O   0  0  0  0  0  0  0  0  0  0  0  0
    5.7681  -20.7954    0.0000 C   0  0  0  0  0  0  0  0  0  0  0  0
    5.7639  -22.2973    0.0000 C   0  0  0  0  0  0  0  0  0  0  0  0
    7.0614  -23.0472    0.0000 C   0  0  0  0  0  0  0  0  0  0  0  0
    8.3621  -22.2972    0.0000 C   0  0  0  0  0  0  0  0  0  0  0  0
    8.3574  -20.7894    0.0000 C   0  0  0  0  0  0  0  0  0  0  0  0
    7.0588  -20.0463    0.0000 C   0  0  0  0  0  0  0  0  0  0  0  0
    9.6622  -23.0453    0.0000 C   0  0  0  0  0  0  0  0  0  0  0  0
    0.5720  -17.7954    0.0000 C   0  0  0  0  0  0  0  0  0  0  0  0
    0.5720  -16.2954    0.0000 C   0  0  0  0  0  0  0  0  0  0  0  0
   -0.7270  -15.5455    0.0000 C   0  0  0  0  0  0  0  0  0  0  0  0
    9.6537  -20.0348    0.0000 C   0  0  0  0  0  0  0  0  0  0  0  0
  3  5  1  0  0  0  0
  9 10  1  0  0  0  0
  2  3  1  0  0  0  0
 10 11  2  0  0  0  0
  3  6  1  0  0  0  0
 11 12  1  0  0  0  0
  1  2  1  0  0  0  0
 12 13  2  0  0  0  0
 13  8  1  0  0  0  0
  3  7  2  0  0  0  0
 11 14  1  0  0  0  0
  2  4  1  0  0  0  0
  4 15  1  0  0  0  0
  6  8  1  0  0  0  0
 15 16  1  0  0  0  0
 16 17  1  0  0  0  0
  8  9  2  0  0  0  0
 12 18  1  0  0  0  0
M  END
> <Value>
5.853871964321762

> <Relation>
=

> <SourceURI>
mol:CHEMBL1095234

$$$$

Generated by Molecular Materials Informatics

 18 18  0  0  0  0  0  0  0  0999 V2000
    8.0145  -20.5121    0.0000 N   0  0  0  0  0  0  0  0  0  0  0  0
    9.3136  -19.7621    0.0000 C   0  0  0  0  0  0  0  0  0  0  0  0
   10.6125  -20.5121    0.0000 P   0  0  0  0  0  0  0  0  0  0  0  0
    9.3136  -18.2621    0.0000 C   0  0  0  0  0  0  0  0  0  0  0  0
   10.6125  -22.0121    0.0000 O   0  0  0  0  0  0  0  0  0  0  0  0
   11.9116  -19.7621    0.0000 O   0  0  0  0  0  0  0  0  0  0  0  0
    9.5520  -21.5728    0.0000 O   0  0  0  0  0  0  0  0  0  0  0  0
   13.2107  -20.5121    0.0000 C   0  0  0  0  0  0  0  0  0  0  0  0
   13.2065  -22.0141    0.0000 C   0  0  0  0  0  0  0  0  0  0  0  0
   14.5039  -22.7639    0.0000 C   0  0  0  0  0  0  0  0  0  0  0  0
   15.8047  -22.0137    0.0000 C   0  0  0  0  0  0  0  0  0  0  0  0
   15.7999  -20.5061    0.0000 C   0  0  0  0  0  0  0  0  0  0  0  0
   14.5014  -19.7630    0.0000 C   0  0  0  0  0  0  0  0  0  0  0  0
    8.0145  -17.5121    0.0000 C   0  0  0  0  0  0  0  0  0  0  0  0
   14.4967  -18.2630    0.0000 C   0  0  0  0  0  0  0  0  0  0  0  0
   14.5032  -24.2639    0.0000 C   0  0  0  0  0  0  0  0  0  0  0  0
    8.0145  -16.0121    0.0000 C   0  0  0  0  0  0  0  0  0  0  0  0
    6.7154  -15.2621    0.0000 C   0  0  0  0  0  0  0  0  0  0  0  0
  3  5  1  0  0  0  0
  9 10  1  0  0  0  0
  2  3  1  0  0  0  0
 10 11  2  0  0  0  0
  3  6  1  0  0  0  0
 11 12  1  0  0  0  0
  1  2  1  0  0  0  0
 12 13  2  0  0  0  0
 13  8  1  0  0  0  0
  3  7  2  0  0  0  0
  4 14  1  0  0  0  0
  2  4  1  0  0  0  0
 13 15  1  0  0  0  0
  6  8  1  0  0  0  0
 10 16  1  0  0  0  0
 14 17  1  0  0  0  0
  8  9  2  0  0  0  0
 17 18  1  0  0  0  0
M  END
> <Value>
3.6989700043360187

> <Relation>
=

> <SourceURI>
mol:CHEMBL1095235

$$$$

Generated by Molecular Materials Informatics

 18 18  0  0  0  0  0  0  0  0999 V2000
   14.5591  -20.2292    0.0000 N   0  0  0  0  0  0  0  0  0  0  0  0
   15.8581  -19.4792    0.0000 C   0  0  0  0  0  0  0  0  0  0  0  0
   17.1570  -20.2292    0.0000 P   0  0  0  0  0  0  0  0  0  0  0  0
   15.8581  -17.9792    0.0000 C   0  0  0  0  0  0  0  0  0  0  0  0
   17.1570  -21.7292    0.0000 O   0  0  0  0  0  0  0  0  0  0  0  0
   18.4561  -19.4792    0.0000 O   0  0  0  0  0  0  0  0  0  0  0  0
   16.0965  -21.2897    0.0000 O   0  0  0  0  0  0  0  0  0  0  0  0
   19.7552  -20.2292    0.0000 C   0  0  0  0  0  0  0  0  0  0  0  0
   19.7510  -21.7310    0.0000 C   0  0  0  0  0  0  0  0  0  0  0  0
   21.0484  -22.4810    0.0000 C   0  0  0  0  0  0  0  0  0  0  0  0
   22.3491  -21.7308    0.0000 C   0  0  0  0  0  0  0  0  0  0  0  0
   22.3444  -20.2230    0.0000 C   0  0  0  0  0  0  0  0  0  0  0  0
   21.0459  -19.4801    0.0000 C   0  0  0  0  0  0  0  0  0  0  0  0
   23.6493  -22.4792    0.0000 O   0  0  0  0  0  0  0  0  0  0  0  0
   14.5591  -17.2292    0.0000 C   0  0  0  0  0  0  0  0  0  0  0  0
   14.5591  -15.7293    0.0000 C   0  0  0  0  0  0  0  0  0  0  0  0
   13.2600  -14.9793    0.0000 C   0  0  0  0  0  0  0  0  0  0  0  0
   23.6513  -23.9791    0.0000 C   0  0  0  0  0  0  0  0  0  0  0  0
  3  5  1  0  0  0  0
  9 10  1  0  0  0  0
  2  3  1  0  0  0  0
 10 11  2  0  0  0  0
  3  6  1  0  0  0  0
 11 12  1  0  0  0  0
  1  2  1  0  0  0  0
 12 13  2  0  0  0  0
 13  8  1  0  0  0  0
  3  7  2  0  0  0  0
 11 14  1  0  0  0  0
  2  4  1  0  0  0  0
  4 15  1  0  0  0  0
  6  8  1  0  0  0  0
 15 16  1  0  0  0  0
 16 17  1  0  0  0  0
  8  9  2  0  0  0  0
 14 18  1  0  0  0  0
M  END
> <Value>
3.677780705266081

> <Relation>
=

> <SourceURI>
mol:CHEMBL1091032

$$$$

Generated by Molecular Materials Informatics

 19 19  0  0  0  0  0  0  0  0999 V2000
   -7.4158  -25.6042    0.0000 N   0  0  0  0  0  0  0  0  0  0  0  0
   -6.1169  -24.8542    0.0000 C   0  0  0  0  0  0  0  0  0  0  0  0
   -4.8178  -25.6042    0.0000 P   0  0  0  0  0  0  0  0  0  0  0  0
   -6.1169  -23.3542    0.0000 C   0  0  0  0  0  0  0  0  0  0  0  0
   -4.8178  -27.1042    0.0000 O   0  0  0  0  0  0  0  0  0  0  0  0
   -3.5188  -24.8542    0.0000 O   0  0  0  0  0  0  0  0  0  0  0  0
   -5.8786  -26.6647    0.0000 O   0  0  0  0  0  0  0  0  0  0  0  0
   -2.2197  -25.6042    0.0000 C   0  0  0  0  0  0  0  0  0  0  0  0
   -2.2240  -27.1060    0.0000 C   0  0  0  0  0  0  0  0  0  0  0  0
   -0.9266  -27.8560    0.0000 C   0  0  0  0  0  0  0  0  0  0  0  0
    0.3743  -27.1058    0.0000 C   0  0  0  0  0  0  0  0  0  0  0  0
    0.3696  -25.5980    0.0000 C   0  0  0  0  0  0  0  0  0  0  0  0
   -0.9291  -24.8551    0.0000 C   0  0  0  0  0  0  0  0  0  0  0  0
    1.6743  -27.8542    0.0000 C   0  0  0  0  0  0  0  0  0  0  0  0
   -7.4158  -22.6042    0.0000 C   0  0  0  0  0  0  0  0  0  0  0  0
    1.6763  -29.3542    0.0000 O   0  0  0  0  0  0  0  0  0  0  0  0
    2.9723  -27.1024    0.0000 O   0  0  0  0  0  0  0  0  0  0  0  0
   -7.4158  -21.1042    0.0000 C   0  0  0  0  0  0  0  0  0  0  0  0
   -8.7149  -20.3542    0.0000 C   0  0  0  0  0  0  0  0  0  0  0  0
  9 10  1  0  0  0  0
  2  3  1  0  0  0  0
 10 11  2  0  0  0  0
  3  6  1  0  0  0  0
 11 12  1  0  0  0  0
  1  2  1  0  0  0  0
 12 13  2  0  0  0  0
 13  8  1  0  0  0  0
  3  7  2  0  0  0  0
 11 14  1  0  0  0  0
  2  4  1  0  0  0  0
  4 15  1  0  0  0  0
  6  8  1  0  0  0  0
 14 16  2  0  0  0  0
 14 17  1  0  0  0  0
  8  9  2  0  0  0  0
 15 18  1  0  0  0  0
  3  5  1  0  0  0  0
 18 19  1  0  0  0  0
M  END
> <Value>
4.259637310505756

> <Relation>
=

> <SourceURI>
mol:CHEMBL1093817

$$$$

Generated by Molecular Materials Informatics

 22 23  0  0  0  0  0  0  0  0999 V2000
    0.9813  -27.3884    0.0000 N   0  0  0  0  0  0  0  0  0  0  0  0
    2.2802  -26.6384    0.0000 C   0  0  0  0  0  0  0  0  0  0  0  0
    3.5793  -27.3884    0.0000 P   0  0  0  0  0  0  0  0  0  0  0  0
    2.2802  -25.1384    0.0000 C   0  0  0  0  0  0  0  0  0  0  0  0
    3.5793  -28.8884    0.0000 O   0  0  0  0  0  0  0  0  0  0  0  0
    4.8784  -26.6384    0.0000 O   0  0  0  0  0  0  0  0  0  0  0  0
    2.5186  -28.4491    0.0000 O   0  0  0  0  0  0  0  0  0  0  0  0
    6.1775  -27.3884    0.0000 C   0  0  0  0  0  0  0  0  0  0  0  0
    6.1731  -28.8904    0.0000 C   0  0  0  0  0  0  0  0  0  0  0  0
    7.4706  -29.6402    0.0000 C   0  0  0  0  0  0  0  0  0  0  0  0
    8.7715  -28.8902    0.0000 C   0  0  0  0  0  0  0  0  0  0  0  0
    8.7667  -27.3824    0.0000 C   0  0  0  0  0  0  0  0  0  0  0  0
    7.4680  -26.6393    0.0000 C   0  0  0  0  0  0  0  0  0  0  0  0
    0.9813  -24.3884    0.0000 C   0  0  0  0  0  0  0  0  0  0  0  0
    7.4635  -25.1393    0.0000 C   0  0  0  0  0  0  0  0  0  0  0  0
    7.4698  -31.1402    0.0000 C   0  0  0  0  0  0  0  0  0  0  0  0
    0.9813  -22.8884    0.0000 C   0  0  0  0  0  0  0  0  0  0  0  0
    2.2846  -22.1419    0.0000 C   0  0  0  0  0  0  0  0  0  0  0  0
    2.2851  -20.6433    0.0000 C   0  0  0  0  0  0  0  0  0  0  0  0
    0.9851  -19.8917    0.0000 C   0  0  0  0  0  0  0  0  0  0  0  0
   -0.3182  -20.6499    0.0000 C   0  0  0  0  0  0  0  0  0  0  0  0
   -0.3125  -22.1459    0.0000 C   0  0  0  0  0  0  0  0  0  0  0  0
  3  6  1  0  0  0  0
 11 12  1  0  0  0  0
  1  2  1  0  0  0  0
 12 13  2  0  0  0  0
 13  8  1  0  0  0  0
  3  7  2  0  0  0  0
  4 14  1  0  0  0  0
  2  4  1  0  0  0  0
 13 15  1  0  0  0  0
  6  8  1  0  0  0  0
 10 16  1  0  0  0  0
 14 17  1  0  0  0  0
  8  9  2  0  0  0  0
 17 18  2  0  0  0  0
  3  5  1  0  0  0  0
 18 19  1  0  0  0  0
  9 10  1  0  0  0  0
 19 20  2  0  0  0  0
  2  3  1  0  0  0  0
 20 21  1  0  0  0  0
 10 11  2  0  0  0  0
 21 22  2  0  0  0  0
 22 17  1  0  0  0  0
M  END
> <Value>
4.823908740944319

> <Relation>
=

> <SourceURI>
mol:CHEMBL1093881

$$$$

Generated by Molecular Materials Informatics

 22 23  0  0  0  0  0  0  0  0999 V2000
    7.4095  -27.7093    0.0000 N   0  0  0  0  0  0  0  0  0  0  0  0
    8.7086  -26.9593    0.0000 C   0  0  0  0  0  0  0  0  0  0  0  0
   10.0075  -27.7093    0.0000 P   0  0  0  0  0  0  0  0  0  0  0  0
    8.7086  -25.4593    0.0000 C   0  0  0  0  0  0  0  0  0  0  0  0
   10.0075  -29.2093    0.0000 O   0  0  0  0  0  0  0  0  0  0  0  0
   11.3066  -26.9593    0.0000 O   0  0  0  0  0  0  0  0  0  0  0  0
    8.9470  -28.7698    0.0000 O   0  0  0  0  0  0  0  0  0  0  0  0
   12.6057  -27.7093    0.0000 C   0  0  0  0  0  0  0  0  0  0  0  0
   12.6015  -29.2111    0.0000 C   0  0  0  0  0  0  0  0  0  0  0  0
   13.8990  -29.9611    0.0000 C   0  0  0  0  0  0  0  0  0  0  0  0
   15.1997  -29.2109    0.0000 C   0  0  0  0  0  0  0  0  0  0  0  0
   15.1950  -27.7031    0.0000 C   0  0  0  0  0  0  0  0  0  0  0  0
   13.8965  -26.9602    0.0000 C   0  0  0  0  0  0  0  0  0  0  0  0
   16.4999  -29.9593    0.0000 C   0  0  0  0  0  0  0  0  0  0  0  0
    7.4095  -24.7093    0.0000 C   0  0  0  0  0  0  0  0  0  0  0  0
    7.4095  -23.2093    0.0000 C   0  0  0  0  0  0  0  0  0  0  0  0
   16.4914  -26.9486    0.0000 C   0  0  0  0  0  0  0  0  0  0  0  0
    8.7128  -22.4626    0.0000 C   0  0  0  0  0  0  0  0  0  0  0  0
    8.7134  -20.9640    0.0000 C   0  0  0  0  0  0  0  0  0  0  0  0
    7.4134  -20.2126    0.0000 C   0  0  0  0  0  0  0  0  0  0  0  0
    6.1101  -20.9706    0.0000 C   0  0  0  0  0  0  0  0  0  0  0  0
    6.1159  -22.4668    0.0000 C   0  0  0  0  0  0  0  0  0  0  0  0
  3  6  1  0  0  0  0
 11 12  1  0  0  0  0
  1  2  1  0  0  0  0
 12 13  2  0  0  0  0
 13  8  1  0  0  0  0
  3  7  2  0  0  0  0
 11 14  1  0  0  0  0
  2  4  1  0  0  0  0
  4 15  1  0  0  0  0
  6  8  1  0  0  0  0
 15 16  1  0  0  0  0
 12 17  1  0  0  0  0
  8  9  2  0  0  0  0
 16 18  2  0  0  0  0
  3  5  1  0  0  0  0
 18 19  1  0  0  0  0
  9 10  1  0  0  0  0
 19 20  2  0  0  0  0
  2  3  1  0  0  0  0
 20 21  1  0  0  0  0
 10 11  2  0  0  0  0
 21 22  2  0  0  0  0
 22 16  1  0  0  0  0
M  END
> <Value>
5.657577319177793

> <Relation>
=

> <SourceURI>
mol:CHEMBL1093882

$$$$

Generated by Molecular Materials Informatics

 23 24  0  0  0  0  0  0  0  0999 V2000
   14.7198  -27.5759    0.0000 N   0  0  0  0  0  0  0  0  0  0  0  0
   16.0189  -26.8259    0.0000 C   0  0  0  0  0  0  0  0  0  0  0  0
   17.3180  -27.5759    0.0000 P   0  0  0  0  0  0  0  0  0  0  0  0
   16.0189  -25.3259    0.0000 C   0  0  0  0  0  0  0  0  0  0  0  0
   17.3180  -29.0759    0.0000 O   0  0  0  0  0  0  0  0  0  0  0  0
   18.6169  -26.8259    0.0000 O   0  0  0  0  0  0  0  0  0  0  0  0
   16.2572  -28.6366    0.0000 O   0  0  0  0  0  0  0  0  0  0  0  0
   19.9159  -27.5759    0.0000 C   0  0  0  0  0  0  0  0  0  0  0  0
   19.9118  -29.0779    0.0000 C   0  0  0  0  0  0  0  0  0  0  0  0
   21.2092  -29.8277    0.0000 C   0  0  0  0  0  0  0  0  0  0  0  0
   22.5101  -29.0777    0.0000 C   0  0  0  0  0  0  0  0  0  0  0  0
   22.5052  -27.5699    0.0000 C   0  0  0  0  0  0  0  0  0  0  0  0
   21.2067  -26.8268    0.0000 C   0  0  0  0  0  0  0  0  0  0  0  0
   14.7198  -24.5759    0.0000 C   0  0  0  0  0  0  0  0  0  0  0  0
   21.2021  -25.3268    0.0000 C   0  0  0  0  0  0  0  0  0  0  0  0
   21.2085  -31.3277    0.0000 C   0  0  0  0  0  0  0  0  0  0  0  0
   14.7198  -23.0759    0.0000 C   0  0  0  0  0  0  0  0  0  0  0  0
   16.0230  -22.3294    0.0000 C   0  0  0  0  0  0  0  0  0  0  0  0
   16.0238  -20.8308    0.0000 C   0  0  0  0  0  0  0  0  0  0  0  0
   14.7238  -20.0792    0.0000 C   0  0  0  0  0  0  0  0  0  0  0  0
   13.4203  -20.8374    0.0000 C   0  0  0  0  0  0  0  0  0  0  0  0
   13.4261  -22.3334    0.0000 C   0  0  0  0  0  0  0  0  0  0  0  0
   23.8016  -26.8154    0.0000 C   0  0  0  0  0  0  0  0  0  0  0  0
 11 12  1  0  0  0  0
  1  2  1  0  0  0  0
 12 13  2  0  0  0  0
 13  8  1  0  0  0  0
  3  7  2  0  0  0  0
  4 14  1  0  0  0  0
  2  4  1  0  0  0  0
 13 15  1  0  0  0  0
  6  8  1  0  0  0  0
 10 16  1  0  0  0  0
 14 17  1  0  0  0  0
  8  9  2  0  0  0  0
 17 18  2  0  0  0  0
  3  5  1  0  0  0  0
 18 19  1  0  0  0  0
  9 10  1  0  0  0  0
 19 20  2  0  0  0  0
  2  3  1  0  0  0  0
 20 21  1  0  0  0  0
 10 11  2  0  0  0  0
 21 22  2  0  0  0  0
 22 17  1  0  0  0  0
  3  6  1  0  0  0  0
 12 23  1  0  0  0  0
M  END
> <Value>
5.301029995663981

> <Relation>
=

> <SourceURI>
mol:CHEMBL1093883

$$$$

Generated by Molecular Materials Informatics

 22 23  0  0  0  0  0  0  0  0999 V2000
   -6.8242   -1.0013    0.0000 N   0  0  0  0  0  0  0  0  0  0  0  0
   -5.5253   -0.2513    0.0000 C   0  0  0  0  0  0  0  0  0  0  0  0
   -4.2262   -1.0013    0.0000 P   0  0  0  0  0  0  0  0  0  0  0  0
   -5.5253    1.2487    0.0000 C   0  0  0  0  0  0  0  0  0  0  0  0
   -4.2262   -2.5013    0.0000 O   0  0  0  0  0  0  0  0  0  0  0  0
   -2.9271   -0.2513    0.0000 O   0  0  0  0  0  0  0  0  0  0  0  0
   -5.2869   -2.0620    0.0000 O   0  0  0  0  0  0  0  0  0  0  0  0
   -1.6280   -1.0013    0.0000 C   0  0  0  0  0  0  0  0  0  0  0  0
   -1.6323   -2.5033    0.0000 C   0  0  0  0  0  0  0  0  0  0  0  0
   -0.3349   -3.2531    0.0000 C   0  0  0  0  0  0  0  0  0  0  0  0
    0.9660   -2.5031    0.0000 C   0  0  0  0  0  0  0  0  0  0  0  0
    0.9613   -0.9953    0.0000 C   0  0  0  0  0  0  0  0  0  0  0  0
   -0.3374   -0.2522    0.0000 C   0  0  0  0  0  0  0  0  0  0  0  0
   -6.8242    1.9987    0.0000 C   0  0  0  0  0  0  0  0  0  0  0  0
   -6.8242    3.4987    0.0000 C   0  0  0  0  0  0  0  0  0  0  0  0
   -5.5209    4.2452    0.0000 C   0  0  0  0  0  0  0  0  0  0  0  0
   -5.5203    5.7438    0.0000 C   0  0  0  0  0  0  0  0  0  0  0  0
   -6.8203    6.4954    0.0000 C   0  0  0  0  0  0  0  0  0  0  0  0
   -8.1236    5.7372    0.0000 C   0  0  0  0  0  0  0  0  0  0  0  0
   -8.1180    4.2412    0.0000 C   0  0  0  0  0  0  0  0  0  0  0  0
    2.2660   -3.2513    0.0000 C   0  0  0  0  0  0  0  0  0  0  0  0
    2.2680   -4.7513    0.0000 C   0  0  0  0  0  0  0  0  0  0  0  0
  3  6  1  0  0  0  0
 11 12  1  0  0  0  0
  1  2  1  0  0  0  0
 12 13  2  0  0  0  0
 13  8  1  0  0  0  0
  3  7  2  0  0  0  0
  4 14  1  0  0  0  0
  2  4  1  0  0  0  0
 14 15  1  0  0  0  0
  6  8  1  0  0  0  0
 15 16  2  0  0  0  0
 16 17  1  0  0  0  0
  8  9  2  0  0  0  0
 17 18  2  0  0  0  0
  3  5  1  0  0  0  0
 18 19  1  0  0  0  0
  9 10  1  0  0  0  0
 19 20  2  0  0  0  0
 20 15  1  0  0  0  0
  2  3  1  0  0  0  0
 11 21  1  0  0  0  0
 10 11  2  0  0  0  0
 21 22  1  0  0  0  0
M  END
> <Value>
4.886056647693163

> <Relation>
=

> <SourceURI>
mol:CHEMBL1093912

$$$$

Generated by Molecular Materials Informatics

 23 24  0  0  0  0  0  0  0  0999 V2000
   -0.2075   -1.2138    0.0000 N   0  0  0  0  0  0  0  0  0  0  0  0
    1.0916   -0.4638    0.0000 C   0  0  0  0  0  0  0  0  0  0  0  0
    2.3905   -1.2138    0.0000 P   0  0  0  0  0  0  0  0  0  0  0  0
    1.0916    1.0362    0.0000 C   0  0  0  0  0  0  0  0  0  0  0  0
    2.3905   -2.7138    0.0000 O   0  0  0  0  0  0  0  0  0  0  0  0
    3.6896   -0.4638    0.0000 O   0  0  0  0  0  0  0  0  0  0  0  0
    1.3300   -2.2745    0.0000 O   0  0  0  0  0  0  0  0  0  0  0  0
    4.9887   -1.2138    0.0000 C   0  0  0  0  0  0  0  0  0  0  0  0
    4.9845   -2.7158    0.0000 C   0  0  0  0  0  0  0  0  0  0  0  0
    6.2819   -3.4656    0.0000 C   0  0  0  0  0  0  0  0  0  0  0  0
    7.5827   -2.7156    0.0000 C   0  0  0  0  0  0  0  0  0  0  0  0
    7.5779   -1.2078    0.0000 C   0  0  0  0  0  0  0  0  0  0  0  0
    6.2794   -0.4647    0.0000 C   0  0  0  0  0  0  0  0  0  0  0  0
   -0.2075    1.7862    0.0000 C   0  0  0  0  0  0  0  0  0  0  0  0
   -0.2075    3.2862    0.0000 C   0  0  0  0  0  0  0  0  0  0  0  0
    1.0958    4.0327    0.0000 C   0  0  0  0  0  0  0  0  0  0  0  0
    1.0963    5.5313    0.0000 C   0  0  0  0  0  0  0  0  0  0  0  0
   -0.2037    6.2829    0.0000 C   0  0  0  0  0  0  0  0  0  0  0  0
   -1.5070    5.5247    0.0000 C   0  0  0  0  0  0  0  0  0  0  0  0
   -1.5011    4.0287    0.0000 C   0  0  0  0  0  0  0  0  0  0  0  0
    8.8829   -3.4638    0.0000 C   0  0  0  0  0  0  0  0  0  0  0  0
    8.8849   -4.9638    0.0000 C   0  0  0  0  0  0  0  0  0  0  0  0
   10.1809   -2.7122    0.0000 C   0  0  0  0  0  0  0  0  0  0  0  0
 11 12  1  0  0  0  0
  1  2  1  0  0  0  0
 12 13  2  0  0  0  0
 13  8  1  0  0  0  0
  3  7  2  0  0  0  0
  4 14  1  0  0  0  0
  2  4  1  0  0  0  0
 14 15  1  0  0  0  0
  6  8  1  0  0  0  0
 15 16  2  0  0  0  0
 16 17  1  0  0  0  0
  8  9  2  0  0  0  0
 17 18  2  0  0  0  0
  3  5  1  0  0  0  0
 18 19  1  0  0  0  0
  9 10  1  0  0  0  0
 19 20  2  0  0  0  0
 20 15  1  0  0  0  0
  2  3  1  0  0  0  0
 11 21  1  0  0  0  0
 10 11  2  0  0  0  0
 21 22  1  0  0  0  0
  3  6  1  0  0  0  0
 21 23  1  0  0  0  0
M  END
> <Value>
6.301029995663981

> <Relation>
=

> <SourceURI>
mol:CHEMBL1093913

$$$$

Generated by Molecular Materials Informatics

 24 25  0  0  0  0  0  0  0  0999 V2000
    6.8508   -1.1180    0.0000 N   0  0  0  0  0  0  0  0  0  0  0  0
    8.1499   -0.3680    0.0000 C   0  0  0  0  0  0  0  0  0  0  0  0
    9.4490   -1.1180    0.0000 P   0  0  0  0  0  0  0  0  0  0  0  0
    8.1499    1.1320    0.0000 C   0  0  0  0  0  0  0  0  0  0  0  0
    9.4490   -2.6180    0.0000 O   0  0  0  0  0  0  0  0  0  0  0  0
   10.7479   -0.3680    0.0000 O   0  0  0  0  0  0  0  0  0  0  0  0
    8.3883   -2.1787    0.0000 O   0  0  0  0  0  0  0  0  0  0  0  0
   12.0470   -1.1180    0.0000 C   0  0  0  0  0  0  0  0  0  0  0  0
   12.0428   -2.6200    0.0000 C   0  0  0  0  0  0  0  0  0  0  0  0
   13.3402   -3.3698    0.0000 C   0  0  0  0  0  0  0  0  0  0  0  0
   14.6411   -2.6196    0.0000 C   0  0  0  0  0  0  0  0  0  0  0  0
   14.6362   -1.1120    0.0000 C   0  0  0  0  0  0  0  0  0  0  0  0
   13.3377   -0.3689    0.0000 C   0  0  0  0  0  0  0  0  0  0  0  0
    6.8508    1.8820    0.0000 C   0  0  0  0  0  0  0  0  0  0  0  0
    6.8508    3.3820    0.0000 C   0  0  0  0  0  0  0  0  0  0  0  0
    8.1541    4.1285    0.0000 C   0  0  0  0  0  0  0  0  0  0  0  0
    8.1548    5.6272    0.0000 C   0  0  0  0  0  0  0  0  0  0  0  0
    6.8548    6.3787    0.0000 C   0  0  0  0  0  0  0  0  0  0  0  0
    5.5514    5.6207    0.0000 C   0  0  0  0  0  0  0  0  0  0  0  0
    5.5572    4.1245    0.0000 C   0  0  0  0  0  0  0  0  0  0  0  0
   15.9411   -3.3680    0.0000 C   0  0  0  0  0  0  0  0  0  0  0  0
   15.9431   -4.8680    0.0000 C   0  0  0  0  0  0  0  0  0  0  0  0
   17.2391   -2.6162    0.0000 C   0  0  0  0  0  0  0  0  0  0  0  0
   16.9948   -4.4211    0.0000 C   0  0  0  0  0  0  0  0  0  0  0  0
  1  2  1  0  0  0  0
 12 13  2  0  0  0  0
 13  8  1  0  0  0  0
  3  7  2  0  0  0  0
  4 14  1  0  0  0  0
  2  4  1  0  0  0  0
 14 15  1  0  0  0  0
  6  8  1  0  0  0  0
 15 16  2  0  0  0  0
 16 17  1  0  0  0  0
  8  9  2  0  0  0  0
 17 18  2  0  0  0  0
  3  5  1  0  0  0  0
 18 19  1  0  0  0  0
  9 10  1  0  0  0  0
 19 20  2  0  0  0  0
 20 15  1  0  0  0  0
  2  3  1  0  0  0  0
 11 21  1  0  0  0  0
 10 11  2  0  0  0  0
 21 22  1  0  0  0  0
  3  6  1  0  0  0  0
 21 23  1  0  0  0  0
 11 12  1  0  0  0  0
 21 24  1  0  0  0  0
M  END
> <Value>
5.721246399047171

> <Relation>
=

> <SourceURI>
mol:CHEMBL1093914

$$$$

Generated by Molecular Materials Informatics

 22 23  0  0  0  0  0  0  0  0999 V2000
   14.5091   -1.0597    0.0000 N   0  0  0  0  0  0  0  0  0  0  0  0
   15.8082   -0.3097    0.0000 C   0  0  0  0  0  0  0  0  0  0  0  0
   17.1071   -1.0597    0.0000 P   0  0  0  0  0  0  0  0  0  0  0  0
   15.8082    1.1903    0.0000 C   0  0  0  0  0  0  0  0  0  0  0  0
   17.1071   -2.5597    0.0000 O   0  0  0  0  0  0  0  0  0  0  0  0
   18.4062   -0.3097    0.0000 O   0  0  0  0  0  0  0  0  0  0  0  0
   16.0466   -2.1203    0.0000 O   0  0  0  0  0  0  0  0  0  0  0  0
   19.7053   -1.0597    0.0000 C   0  0  0  0  0  0  0  0  0  0  0  0
   19.7011   -2.5615    0.0000 C   0  0  0  0  0  0  0  0  0  0  0  0
   20.9985   -3.3115    0.0000 C   0  0  0  0  0  0  0  0  0  0  0  0
   22.2993   -2.5613    0.0000 C   0  0  0  0  0  0  0  0  0  0  0  0
   22.2945   -1.0535    0.0000 C   0  0  0  0  0  0  0  0  0  0  0  0
   20.9960   -0.3106    0.0000 C   0  0  0  0  0  0  0  0  0  0  0  0
   14.5091    1.9403    0.0000 C   0  0  0  0  0  0  0  0  0  0  0  0
   14.5091    3.4403    0.0000 C   0  0  0  0  0  0  0  0  0  0  0  0
   15.8124    4.1870    0.0000 C   0  0  0  0  0  0  0  0  0  0  0  0
   15.8129    5.6856    0.0000 C   0  0  0  0  0  0  0  0  0  0  0  0
   14.5129    6.4370    0.0000 C   0  0  0  0  0  0  0  0  0  0  0  0
   13.2096    5.6790    0.0000 C   0  0  0  0  0  0  0  0  0  0  0  0
   13.2155    4.1828    0.0000 C   0  0  0  0  0  0  0  0  0  0  0  0
   23.5995   -3.3097    0.0000 O   0  0  0  0  0  0  0  0  0  0  0  0
   23.6015   -4.8097    0.0000 C   0  0  0  0  0  0  0  0  0  0  0  0
  3  6  1  0  0  0  0
 11 12  1  0  0  0  0
  1  2  1  0  0  0  0
 12 13  2  0  0  0  0
 13  8  1  0  0  0  0
  3  7  2  0  0  0  0
  4 14  1  0  0  0  0
  2  4  1  0  0  0  0
 14 15  1  0  0  0  0
  6  8  1  0  0  0  0
 15 16  2  0  0  0  0
 16 17  1  0  0  0  0
  8  9  2  0  0  0  0
 17 18  2  0  0  0  0
  3  5  1  0  0  0  0
 18 19  1  0  0  0  0
  9 10  1  0  0  0  0
 19 20  2  0  0  0  0
 20 15  1  0  0  0  0
  2  3  1  0  0  0  0
 11 21  1  0  0  0  0
 10 11  2  0  0  0  0
 21 22  1  0  0  0  0
M  END
> <Value>
5.5376020021010435

> <Relation>
=

> <SourceURI>
mol:CHEMBL1090217

$$$$

Generated by Molecular Materials Informatics

 23 24  0  0  0  0  0  0  0  0999 V2000
   -6.3783   -9.8513    0.0000 N   0  0  0  0  0  0  0  0  0  0  0  0
   -5.0794   -9.1013    0.0000 C   0  0  0  0  0  0  0  0  0  0  0  0
   -3.7803   -9.8513    0.0000 P   0  0  0  0  0  0  0  0  0  0  0  0
   -5.0794   -7.6013    0.0000 C   0  0  0  0  0  0  0  0  0  0  0  0
   -3.7803  -11.3513    0.0000 O   0  0  0  0  0  0  0  0  0  0  0  0
   -2.4812   -9.1013    0.0000 O   0  0  0  0  0  0  0  0  0  0  0  0
   -4.8410  -10.9120    0.0000 O   0  0  0  0  0  0  0  0  0  0  0  0
   -1.1821   -9.8513    0.0000 C   0  0  0  0  0  0  0  0  0  0  0  0
   -1.1864  -11.3533    0.0000 C   0  0  0  0  0  0  0  0  0  0  0  0
    0.1110  -12.1031    0.0000 C   0  0  0  0  0  0  0  0  0  0  0  0
    1.4119  -11.3531    0.0000 C   0  0  0  0  0  0  0  0  0  0  0  0
    1.4072   -9.8453    0.0000 C   0  0  0  0  0  0  0  0  0  0  0  0
    0.1085   -9.1022    0.0000 C   0  0  0  0  0  0  0  0  0  0  0  0
   -6.3783   -6.8513    0.0000 C   0  0  0  0  0  0  0  0  0  0  0  0
   -6.3783   -5.3513    0.0000 C   0  0  0  0  0  0  0  0  0  0  0  0
   -5.0750   -4.6048    0.0000 C   0  0  0  0  0  0  0  0  0  0  0  0
   -5.0744   -3.1062    0.0000 C   0  0  0  0  0  0  0  0  0  0  0  0
   -6.3744   -2.3546    0.0000 C   0  0  0  0  0  0  0  0  0  0  0  0
   -7.6777   -3.1128    0.0000 C   0  0  0  0  0  0  0  0  0  0  0  0
   -7.6721   -4.6088    0.0000 C   0  0  0  0  0  0  0  0  0  0  0  0
    2.7119  -12.1013    0.0000 C   0  0  0  0  0  0  0  0  0  0  0  0
    2.7139  -13.6013    0.0000 O   0  0  0  0  0  0  0  0  0  0  0  0
    4.0099  -11.3497    0.0000 O   0  0  0  0  0  0  0  0  0  0  0  0
 11 12  1  0  0  0  0
  1  2  1  0  0  0  0
 12 13  2  0  0  0  0
 13  8  1  0  0  0  0
  3  7  2  0  0  0  0
  4 14  1  0  0  0  0
  2  4  1  0  0  0  0
 14 15  1  0  0  0  0
  6  8  1  0  0  0  0
 15 16  2  0  0  0  0
 16 17  1  0  0  0  0
  8  9  2  0  0  0  0
 17 18  2  0  0  0  0
  3  5  1  0  0  0  0
 18 19  1  0  0  0  0
  9 10  1  0  0  0  0
 19 20  2  0  0  0  0
 20 15  1  0  0  0  0
  2  3  1  0  0  0  0
 11 21  1  0  0  0  0
 10 11  2  0  0  0  0
 21 22  2  0  0  0  0
  3  6  1  0  0  0  0
 21 23  1  0  0  0  0
M  END
> <Value>
4.657577319177793

> <Relation>
=

> <SourceURI>
mol:CHEMBL1092268

$$$$

Generated by Molecular Materials Informatics

 28 29  0  0  0  0  0  0  0  0999 V2000
    0.9746   -9.9115    0.0000 N   0  0  0  0  0  0  0  0  0  0  0  0
    2.2736   -9.1615    0.0000 C   0  0  0  0  0  0  0  0  0  0  0  0
    3.5726   -9.9115    0.0000 P   0  0  0  0  0  0  0  0  0  0  0  0
    2.2736   -7.6615    0.0000 C   0  0  0  0  0  0  0  0  0  0  0  0
    3.5726  -11.4115    0.0000 O   0  0  0  0  0  0  0  0  0  0  0  0
    4.8717   -9.1615    0.0000 O   0  0  0  0  0  0  0  0  0  0  0  0
    2.5119  -10.9722    0.0000 O   0  0  0  0  0  0  0  0  0  0  0  0
    6.1708   -9.9115    0.0000 C   0  0  0  0  0  0  0  0  0  0  0  0
    6.1665  -11.4135    0.0000 C   0  0  0  0  0  0  0  0  0  0  0  0
    7.4639  -12.1633    0.0000 C   0  0  0  0  0  0  0  0  0  0  0  0
    8.7648  -11.4133    0.0000 C   0  0  0  0  0  0  0  0  0  0  0  0
    8.7601   -9.9055    0.0000 C   0  0  0  0  0  0  0  0  0  0  0  0
    7.4614   -9.1624    0.0000 C   0  0  0  0  0  0  0  0  0  0  0  0
    0.9746   -6.9115    0.0000 C   0  0  0  0  0  0  0  0  0  0  0  0
    0.9746   -5.4115    0.0000 C   0  0  0  0  0  0  0  0  0  0  0  0
    2.2779   -4.6650    0.0000 C   0  0  0  0  0  0  0  0  0  0  0  0
    2.2785   -3.1664    0.0000 C   0  0  0  0  0  0  0  0  0  0  0  0
    0.9785   -2.4148    0.0000 C   0  0  0  0  0  0  0  0  0  0  0  0
   -0.3248   -3.1730    0.0000 C   0  0  0  0  0  0  0  0  0  0  0  0
   -0.3192   -4.6690    0.0000 C   0  0  0  0  0  0  0  0  0  0  0  0
   10.0648  -12.1615    0.0000 C   0  0  0  0  0  0  0  0  0  0  0  0
   11.3628  -11.4099    0.0000 C   0  0  0  0  0  0  0  0  0  0  0  0
   12.6630  -12.1581    0.0000 C   0  0  0  0  0  0  0  0  0  0  0  0
   13.9610  -11.4064    0.0000 C   0  0  0  0  0  0  0  0  0  0  0  0
    8.9897  -13.2146    0.0000 C   0  0  0  0  0  0  0  0  0  0  0  0
   10.8003  -13.4495    0.0000 C   0  0  0  0  0  0  0  0  0  0  0  0
   11.8988  -13.4495    0.0000 C   0  0  0  0  0  0  0  0  0  0  0  0
   13.3988  -13.4495    0.0000 C   0  0  0  0  0  0  0  0  0  0  0  0
  4 14  1  0  0  0  0
  2  4  1  0  0  0  0
 14 15  1  0  0  0  0
  6  8  1  0  0  0  0
 15 16  2  0  0  0  0
 16 17  1  0  0  0  0
  8  9  2  0  0  0  0
 17 18  2  0  0  0  0
  3  5  1  0  0  0  0
 18 19  1  0  0  0  0
  9 10  1  0  0  0  0
 19 20  2  0  0  0  0
 20 15  1  0  0  0  0
  2  3  1  0  0  0  0
 11 21  1  0  0  0  0
 10 11  2  0  0  0  0
 21 22  1  0  0  0  0
  3  6  1  0  0  0  0
 22 23  1  0  0  0  0
 11 12  1  0  0  0  0
 23 24  1  0  0  0  0
  1  2  1  0  0  0  0
 21 25  1  0  0  0  0
 12 13  2  0  0  0  0
 21 26  1  0  0  0  0
 13  8  1  0  0  0  0
 23 27  1  0  0  0  0
  3  7  2  0  0  0  0
 23 28  1  0  0  0  0
M  END
> <Value>
5.200659450546418

> <Relation>
=

> <SourceURI>
mol:CHEMBL1092269

$$$$

Generated by Molecular Materials Informatics

 22 22  0  0  0  0  0  0  0  0999 V2000
   -1.8606   -1.2530    0.0000 N   0  0  0  0  0  0  0  0  0  0  0  0
   -1.8606    0.2470    0.0000 C   0  0  0  0  0  0  0  0  0  0  0  0
   -3.1597    0.9970    0.0000 C   0  0  0  0  0  0  0  0  0  0  0  0
   -4.4588    0.2470    0.0000 C   0  0  0  0  0  0  0  0  0  0  0  0
   -4.4588   -1.2530    0.0000 C   0  0  0  0  0  0  0  0  0  0  0  0
   -5.7577    0.9970    0.0000 C   0  0  0  0  0  0  0  0  0  0  0  0
   -5.7577   -2.0030    0.0000 C   0  0  0  0  0  0  0  0  0  0  0  0
   -7.0568    0.2470    0.0000 C   0  0  0  0  0  0  0  0  0  0  0  0
   -7.0568   -1.2530    0.0000 C   0  0  0  0  0  0  0  0  0  0  0  0
   -0.5617    0.9970    0.0000 C   0  0  0  0  0  0  0  0  0  0  0  0
   -0.5617    2.4970    0.0000 O   0  0  0  0  0  0  0  0  0  0  0  0
    0.7374    0.2470    0.0000 C   0  0  0  0  0  0  0  0  0  0  0  0
    0.7374   -1.2530    0.0000 O   0  0  0  0  0  0  0  0  0  0  0  0
    2.0364    0.9970    0.0000 N   0  0  0  0  0  0  0  0  0  0  0  0
    3.3355    0.2470    0.0000 C   0  0  0  0  0  0  0  0  0  0  0  0
    4.6344    0.9970    0.0000 C   0  0  0  0  0  0  0  0  0  0  0  0
    5.9335    0.2470    0.0000 C   0  0  0  0  0  0  0  0  0  0  0  0
    7.2326    0.9970    0.0000 C   0  0  0  0  0  0  0  0  0  0  0  0
    5.9335   -1.2530    0.0000 C   0  0  0  0  0  0  0  0  0  0  0  0
    3.3355   -1.2530    0.0000 C   0  0  0  0  0  0  0  0  0  0  0  0
    4.6344   -2.0030    0.0000 O   0  0  0  0  0  0  0  0  0  0  0  0
    2.0364   -2.0030    0.0000 O   0  0  0  0  0  0  0  0  0  0  0  0
  2  1  1  6  0  0  0
  2  3  1  0  0  0  0
  2 10  1  0  0  0  0
  3  4  1  0  0  0  0
  4  5  2  0  0  0  0
  6  4  1  0  0  0  0
  5  7  1  0  0  0  0
  8  6  2  0  0  0  0
  9  7  2  0  0  0  0
  9  8  1  0  0  0  0
 10 11  1  6  0  0  0
 10 12  1  0  0  0  0
 12 13  2  0  0  0  0
 12 14  1  0  0  0  0
 15 14  1  1  0  0  0
 16 15  1  0  0  0  0
 15 20  1  0  0  0  0
 16 17  1  0  0  0  0
 17 18  1  0  0  0  0
 17 19  1  0  0  0  0
 20 21  1  0  0  0  0
 20 22  2  0  0  0  0
M  END
> <Value>
5.484834017108482

> <Error>
3.4183012913197457

> <Relation>
=

> <SourceURI>
mol:CHEMBL29292

$$$$

Generated by Molecular Materials Informatics

 20 20  0  0  0  0  0  0  0  0999 V2000
    1.7851   -3.7362    0.0000 N   0  0  0  0  0  0  0  0  0  0  0  0
    3.0842   -4.4862    0.0000 C   0  0  0  0  0  0  0  0  0  0  0  0
    4.3832   -3.7362    0.0000 C   0  0  0  0  0  0  0  0  0  0  0  0
    3.0842   -5.9862    0.0000 O   0  0  0  0  0  0  0  0  0  0  0  0
    5.6822   -4.4862    0.0000 N   0  0  0  0  0  0  0  0  0  0  0  0
    6.9815   -3.7362    0.0000 C   0  0  0  0  0  0  0  0  0  0  0  0
    8.2805   -4.4862    0.0000 N   0  0  0  0  0  0  0  0  0  0  0  0
    6.9815   -2.2362    0.0000 O   0  0  0  0  0  0  0  0  0  0  0  0
    9.5795   -3.7362    0.0000 C   0  0  0  0  0  0  0  0  0  0  0  0
   10.8785   -4.4862    0.0000 C   0  0  0  0  0  0  0  0  0  0  0  0
   10.8751   -5.9882    0.0000 C   0  0  0  0  0  0  0  0  0  0  0  0
   12.1726   -6.7381    0.0000 C   0  0  0  0  0  0  0  0  0  0  0  0
   13.4735   -5.9879    0.0000 C   0  0  0  0  0  0  0  0  0  0  0  0
   13.4685   -4.4801    0.0000 C   0  0  0  0  0  0  0  0  0  0  0  0
   12.1700   -3.7371    0.0000 C   0  0  0  0  0  0  0  0  0  0  0  0
    4.3832   -2.2362    0.0000 C   0  0  0  0  0  0  0  0  0  0  0  0
    3.0842   -1.4862    0.0000 C   0  0  0  0  0  0  0  0  0  0  0  0
    3.0842    0.0139    0.0000 C   0  0  0  0  0  0  0  0  0  0  0  0
    1.7851   -2.2362    0.0000 C   0  0  0  0  0  0  0  0  0  0  0  0
    0.4861   -4.4862    0.0000 O   0  0  0  0  0  0  0  0  0  0  0  0
  1  2  1  0  0  0  0
  2  3  1  0  0  0  0
  2  4  2  0  0  0  0
  3  5  1  0  0  0  0
  5  6  1  0  0  0  0
  6  7  1  0  0  0  0
  6  8  2  0  0  0  0
  7  9  1  0  0  0  0
  9 10  1  0  0  0  0
 10 11  2  0  0  0  0
 11 12  1  0  0  0  0
 12 13  2  0  0  0  0
 13 14  1  0  0  0  0
 14 15  2  0  0  0  0
 15 10  1  0  0  0  0
  3 16  1  6  0  0  0
 16 17  1  0  0  0  0
 17 18  1  0  0  0  0
 17 19  1  0  0  0  0
  1 20  1  0  0  0  0
M  END
> <Value>
6.070581074285707

> <Relation>
=

> <SourceURI>
mol:CHEMBL2393088

$$$$

Generated by Molecular Materials Informatics

 19 19  0  0  0  0  0  0  0  0999 V2000
    7.8793  -10.7188    0.0000 C   0  0  0  0  0  0  0  0  0  0  0  0
    9.1854  -11.4696    0.0000 C   0  0  0  0  0  0  0  0  0  0  0  0
   10.4840  -10.7188    0.0000 C   0  0  0  0  0  0  0  0  0  0  0  0
   10.4779   -9.2155    0.0000 C   0  0  0  0  0  0  0  0  0  0  0  0
   11.7752   -8.4647    0.0000 C   0  0  0  0  0  0  0  0  0  0  0  0
   13.0752   -9.2157    0.0000 C   0  0  0  0  0  0  0  0  0  0  0  0
   13.0712  -10.7239    0.0000 C   0  0  0  0  0  0  0  0  0  0  0  0
   11.7730  -11.4688    0.0000 C   0  0  0  0  0  0  0  0  0  0  0  0
    1.3740  -11.4771    0.0000 O   0  0  0  0  0  0  0  0  0  0  0  0
    2.6801  -10.7263    0.0000 N   0  0  0  0  0  0  0  0  0  0  0  0
    3.9784  -11.4771    0.0000 C   0  0  0  0  0  0  0  0  0  0  0  0
    5.2770  -10.7263    0.0000 C   0  0  0  0  0  0  0  0  0  0  0  0
    3.9784  -12.9787    0.0000 O   0  0  0  0  0  0  0  0  0  0  0  0
    6.5756  -11.4771    0.0000 N   0  0  0  0  0  0  0  0  0  0  0  0
    5.2770   -9.2247    0.0000 C   0  0  0  0  0  0  0  0  0  0  0  0
    7.8817   -9.2247    0.0000 O   0  0  0  0  0  0  0  0  0  0  0  0
    3.9784   -8.4739    0.0000 C   0  0  0  0  0  0  0  0  0  0  0  0
    3.9784   -6.9723    0.0000 C   0  0  0  0  0  0  0  0  0  0  0  0
    2.6801   -9.2247    0.0000 C   0  0  0  0  0  0  0  0  0  0  0  0
  1  2  1  0  0  0  0
  2  3  1  0  0  0  0
  3  4  2  0  0  0  0
  4  5  1  0  0  0  0
  5  6  2  0  0  0  0
  6  7  1  0  0  0  0
  7  8  2  0  0  0  0
  8  3  1  0  0  0  0
  9 10  1  0  0  0  0
 10 11  1  0  0  0  0
 11 12  1  0  0  0  0
 11 13  2  0  0  0  0
 12 14  1  0  0  0  0
 12 15  1  6  0  0  0
 14  1  1  0  0  0  0
  1 16  2  0  0  0  0
 15 17  1  0  0  0  0
 17 18  1  0  0  0  0
 17 19  1  0  0  0  0
M  END
> <Value>
5.0

> <Relation>
<

> <SourceURI>
mol:CHEMBL2204961

$$$$

Generated by Molecular Materials Informatics

 22 22  0  0  0  0  0  0  0  0999 V2000
    0.7992  -14.9334    0.0000 O   0  0  0  0  0  0  0  0  0  0  0  0
    2.1053  -14.1826    0.0000 N   0  0  0  0  0  0  0  0  0  0  0  0
    3.4038  -14.9334    0.0000 C   0  0  0  0  0  0  0  0  0  0  0  0
    4.7024  -14.1826    0.0000 C   0  0  0  0  0  0  0  0  0  0  0  0
    3.4038  -16.4350    0.0000 O   0  0  0  0  0  0  0  0  0  0  0  0
    6.0010  -14.9334    0.0000 N   0  0  0  0  0  0  0  0  0  0  0  0
    4.7024  -12.6810    0.0000 C   0  0  0  0  0  0  0  0  0  0  0  0
    7.3071  -14.1826    0.0000 C   0  0  0  0  0  0  0  0  0  0  0  0
    8.6057  -14.9334    0.0000 O   0  0  0  0  0  0  0  0  0  0  0  0
    7.3071  -12.6810    0.0000 O   0  0  0  0  0  0  0  0  0  0  0  0
    9.9042  -14.1826    0.0000 C   0  0  0  0  0  0  0  0  0  0  0  0
   11.2026  -14.9334    0.0000 C   0  0  0  0  0  0  0  0  0  0  0  0
   12.5087  -14.1826    0.0000 C   0  0  0  0  0  0  0  0  0  0  0  0
   13.8073  -14.9334    0.0000 C   0  0  0  0  0  0  0  0  0  0  0  0
   13.8014  -16.4367    0.0000 C   0  0  0  0  0  0  0  0  0  0  0  0
   15.0987  -17.1875    0.0000 C   0  0  0  0  0  0  0  0  0  0  0  0
   16.3987  -16.4365    0.0000 C   0  0  0  0  0  0  0  0  0  0  0  0
   16.3945  -14.9282    0.0000 C   0  0  0  0  0  0  0  0  0  0  0  0
   15.0965  -14.1835    0.0000 C   0  0  0  0  0  0  0  0  0  0  0  0
    3.4038  -11.9303    0.0000 C   0  0  0  0  0  0  0  0  0  0  0  0
    3.4038  -10.4287    0.0000 C   0  0  0  0  0  0  0  0  0  0  0  0
    2.1053  -12.6810    0.0000 C   0  0  0  0  0  0  0  0  0  0  0  0
  1  2  1  0  0  0  0
  2  3  1  0  0  0  0
  3  4  1  0  0  0  0
  3  5  2  0  0  0  0
  4  6  1  0  0  0  0
  4  7  1  6  0  0  0
  6  8  1  0  0  0  0
  8  9  1  0  0  0  0
  8 10  2  0  0  0  0
  9 11  1  0  0  0  0
 11 12  1  0  0  0  0
 12 13  1  0  0  0  0
 13 14  1  0  0  0  0
 14 15  2  0  0  0  0
 15 16  1  0  0  0  0
 16 17  2  0  0  0  0
 17 18  1  0  0  0  0
 18 19  2  0  0  0  0
 19 14  1  0  0  0  0
  7 20  1  0  0  0  0
 20 21  1  0  0  0  0
 20 22  1  0  0  0  0
M  END
> <Value>
5.0

> <Relation>
<

> <SourceURI>
mol:CHEMBL2204960

$$$$

Generated by Molecular Materials Informatics

 24 25  0  0  0  0  0  0  0  0999 V2000
   10.8141   -5.7064    0.0000 C   0  0  0  0  0  0  0  0  0  0  0  0
   10.0641   -7.0055    0.0000 C   0  0  0  0  0  0  0  0  0  0  0  0
   10.8141   -8.3044    0.0000 C   0  0  0  0  0  0  0  0  0  0  0  0
   12.3141   -8.3044    0.0000 C   0  0  0  0  0  0  0  0  0  0  0  0
   13.0641   -7.0055    0.0000 C   0  0  0  0  0  0  0  0  0  0  0  0
   12.3141   -5.7064    0.0000 O   0  0  0  0  0  0  0  0  0  0  0  0
   10.0641   -4.4073    0.0000 N   0  0  0  0  0  0  0  0  0  0  0  0
    8.5641   -4.4073    0.0000 O   0  0  0  0  0  0  0  0  0  0  0  0
    8.5641   -7.0055    0.0000 N   0  0  0  0  0  0  0  0  0  0  0  0
    7.8141   -8.3044    0.0000 C   0  0  0  0  0  0  0  0  0  0  0  0
    8.5641   -9.6035    0.0000 O   0  0  0  0  0  0  0  0  0  0  0  0
    6.3141   -8.3044    0.0000 N   0  0  0  0  0  0  0  0  0  0  0  0
    5.5641   -7.0055    0.0000 C   0  0  0  0  0  0  0  0  0  0  0  0
    4.0641   -7.0055    0.0000 C   0  0  0  0  0  0  0  0  0  0  0  0
    3.3141   -8.3044    0.0000 C   0  0  0  0  0  0  0  0  0  0  0  0
    1.8141   -8.3044    0.0000 C   0  0  0  0  0  0  0  0  0  0  0  0
    1.0641   -7.0055    0.0000 C   0  0  0  0  0  0  0  0  0  0  0  0
    1.8141   -5.7064    0.0000 C   0  0  0  0  0  0  0  0  0  0  0  0
    1.0641   -4.4073    0.0000 C   0  0  0  0  0  0  0  0  0  0  0  0
    1.8141   -3.1084    0.0000 C   0  0  0  0  0  0  0  0  0  0  0  0
    3.3141   -3.1084    0.0000 C   0  0  0  0  0  0  0  0  0  0  0  0
    4.0641   -4.4073    0.0000 C   0  0  0  0  0  0  0  0  0  0  0  0
    3.3141   -5.7064    0.0000 C   0  0  0  0  0  0  0  0  0  0  0  0
   13.0641   -9.6035    0.0000 C   0  0  0  0  0  0  0  0  0  0  0  0
  1  2  1  0  0  0  0
  2  3  1  0  0  0  0
  3  4  1  0  0  0  0
  4  5  1  0  0  0  0
  1  6  2  0  0  0  0
  7  8  1  0  0  0  0
  1  7  1  0  0  0  0
  9 10  1  0  0  0  0
 10 11  2  0  0  0  0
 10 12  1  0  0  0  0
 14 15  1  0  0  0  0
 15 16  2  0  0  0  0
 16 17  1  0  0  0  0
 17 18  2  0  0  0  0
 18 19  1  0  0  0  0
 19 20  2  0  0  0  0
 20 21  1  0  0  0  0
 21 22  2  0  0  0  0
 22 23  1  0  0  0  0
 14 23  2  0  0  0  0
 18 23  1  0  0  0  0
 13 14  1  0  0  0  0
 12 13  1  0  0  0  0
  2  9  1  6  0  0  0
  4 24  1  0  0  0  0
M  END
> <Value>
7.301029995663981

> <Relation>
=

> <SourceURI>
mol:CHEMBL2204959

$$$$

Generated by Molecular Materials Informatics

 21 22  0  0  0  0  0  0  0  0999 V2000
    7.8141   -7.7086    0.0000 C   0  0  0  0  0  0  0  0  0  0  0  0
    8.5641   -6.4096    0.0000 C   0  0  0  0  0  0  0  0  0  0  0  0
    6.3141   -7.7086    0.0000 O   0  0  0  0  0  0  0  0  0  0  0  0
    8.5641   -9.0076    0.0000 N   0  0  0  0  0  0  0  0  0  0  0  0
    7.8141   -5.1105    0.0000 N   0  0  0  0  0  0  0  0  0  0  0  0
    6.3141   -5.1105    0.0000 C   0  0  0  0  0  0  0  0  0  0  0  0
    5.5641   -3.8115    0.0000 O   0  0  0  0  0  0  0  0  0  0  0  0
    5.5641   -6.4096    0.0000 N   0  0  0  0  0  0  0  0  0  0  0  0
    4.0641   -6.4096    0.0000 C   0  0  0  0  0  0  0  0  0  0  0  0
    3.3141   -7.7086    0.0000 C   0  0  0  0  0  0  0  0  0  0  0  0
    1.8141   -7.7086    0.0000 C   0  0  0  0  0  0  0  0  0  0  0  0
    1.0641   -6.4096    0.0000 C   0  0  0  0  0  0  0  0  0  0  0  0
    1.8141   -5.1105    0.0000 C   0  0  0  0  0  0  0  0  0  0  0  0
    3.3141   -5.1105    0.0000 C   0  0  0  0  0  0  0  0  0  0  0  0
   10.0641   -6.4096    0.0000 C   0  0  0  0  0  0  0  0  0  0  0  0
   10.8141   -5.1105    0.0000 C   0  0  0  0  0  0  0  0  0  0  0  0
   12.3141   -5.1105    0.0000 C   0  0  0  0  0  0  0  0  0  0  0  0
   13.0641   -6.4096    0.0000 C   0  0  0  0  0  0  0  0  0  0  0  0
   12.3141   -7.7086    0.0000 C   0  0  0  0  0  0  0  0  0  0  0  0
   10.8141   -7.7086    0.0000 C   0  0  0  0  0  0  0  0  0  0  0  0
   10.0641   -9.0076    0.0000 O   0  0  0  0  0  0  0  0  0  0  0  0
  1  2  1  0  0  0  0
  1  3  2  0  0  0  0
  1  4  1  0  0  0  0
  5  6  1  0  0  0  0
  6  7  2  0  0  0  0
  6  8  1  0  0  0  0
  9 10  1  0  0  0  0
 10 11  2  0  0  0  0
 11 12  1  0  0  0  0
 12 13  2  0  0  0  0
 13 14  1  0  0  0  0
  9 14  2  0  0  0  0
  8  9  1  0  0  0  0
  2  5  1  1  0  0  0
 15 16  1  0  0  0  0
 16 17  2  0  0  0  0
 17 18  1  0  0  0  0
 18 19  2  0  0  0  0
 19 20  1  0  0  0  0
 15 20  2  0  0  0  0
  2 15  1  0  0  0  0
  4 21  1  0  0  0  0
M  END
> <Value>
5.229147988357856

> <Relation>
=

> <SourceURI>
mol:CHEMBL2204958

$$$$

Generated by Molecular Materials Informatics

 22 23  0  0  0  0  0  0  0  0999 V2000
    6.4685   -8.6027    0.0000 C   0  0  0  0  0  0  0  0  0  0  0  0
    6.4685   -7.1037    0.0000 C   0  0  0  0  0  0  0  0  0  0  0  0
    7.7616   -9.3523    0.0000 O   0  0  0  0  0  0  0  0  0  0  0  0
    5.1678   -9.3523    0.0000 N   0  0  0  0  0  0  0  0  0  0  0  0
    5.1678   -6.3541    0.0000 C   0  0  0  0  0  0  0  0  0  0  0  0
    5.1678   -4.8550    0.0000 C   0  0  0  0  0  0  0  0  0  0  0  0
    3.8670   -4.1055    0.0000 C   0  0  0  0  0  0  0  0  0  0  0  0
    2.5737   -4.8550    0.0000 C   0  0  0  0  0  0  0  0  0  0  0  0
    2.5737   -6.3541    0.0000 C   0  0  0  0  0  0  0  0  0  0  0  0
    3.8670   -7.1037    0.0000 C   0  0  0  0  0  0  0  0  0  0  0  0
    3.8670   -8.6027    0.0000 O   0  0  0  0  0  0  0  0  0  0  0  0
    7.7616   -6.3541    0.0000 N   0  0  0  0  0  0  0  0  0  0  0  0
    9.0624   -7.1037    0.0000 C   0  0  0  0  0  0  0  0  0  0  0  0
   10.3631   -6.3541    0.0000 O   0  0  0  0  0  0  0  0  0  0  0  0
    9.0624   -8.6027    0.0000 N   0  0  0  0  0  0  0  0  0  0  0  0
   10.3631   -9.3523    0.0000 C   0  0  0  0  0  0  0  0  0  0  0  0
   10.3571  -10.8501    0.0000 C   0  0  0  0  0  0  0  0  0  0  0  0
   11.6564  -11.5996    0.0000 C   0  0  0  0  0  0  0  0  0  0  0  0
   13.1358  -10.8477    0.0000 C   0  0  0  0  0  0  0  0  0  0  0  0
   13.1296   -9.3387    0.0000 C   0  0  0  0  0  0  0  0  0  0  0  0
   11.6513   -8.5961    0.0000 C   0  0  0  0  0  0  0  0  0  0  0  0
   14.2576  -11.5945    0.0000 F   0  0  0  0  0  0  0  0  0  0  0  0
  1  2  1  0  0  0  0
  1  3  2  0  0  0  0
  1  4  1  0  0  0  0
  5  6  1  0  0  0  0
  6  7  2  0  0  0  0
  7  8  1  0  0  0  0
  8  9  2  0  0  0  0
  9 10  1  0  0  0  0
  5 10  2  0  0  0  0
  2  5  1  0  0  0  0
  4 11  1  0  0  0  0
 12 13  1  0  0  0  0
 13 14  2  0  0  0  0
 13 15  1  0  0  0  0
 15 16  1  0  0  0  0
  2 12  1  6  0  0  0
 16 17  2  0  0  0  0
 17 18  1  0  0  0  0
 18 19  2  0  0  0  0
 19 20  1  0  0  0  0
 20 21  2  0  0  0  0
 21 16  1  0  0  0  0
 19 22  1  0  0  0  0
M  END
> <Value>
5.00436480540245

> <Relation>
=

> <SourceURI>
mol:CHEMBL2204957

$$$$

Generated by Molecular Materials Informatics

 24 25  0  0  0  0  0  0  0  0999 V2000
   10.3109   -8.7354    0.0000 C   0  0  0  0  0  0  0  0  0  0  0  0
   10.3109   -7.2354    0.0000 C   0  0  0  0  0  0  0  0  0  0  0  0
    9.0119   -9.4854    0.0000 O   0  0  0  0  0  0  0  0  0  0  0  0
   11.6098   -9.4854    0.0000 N   0  0  0  0  0  0  0  0  0  0  0  0
   11.6098   -6.4855    0.0000 C   0  0  0  0  0  0  0  0  0  0  0  0
   11.6098   -4.9855    0.0000 C   0  0  0  0  0  0  0  0  0  0  0  0
   12.9089   -4.2355    0.0000 C   0  0  0  0  0  0  0  0  0  0  0  0
   14.2079   -4.9855    0.0000 C   0  0  0  0  0  0  0  0  0  0  0  0
   14.2079   -6.4855    0.0000 C   0  0  0  0  0  0  0  0  0  0  0  0
   12.9089   -7.2354    0.0000 C   0  0  0  0  0  0  0  0  0  0  0  0
    9.0119   -6.4855    0.0000 N   0  0  0  0  0  0  0  0  0  0  0  0
    7.7128   -7.2354    0.0000 C   0  0  0  0  0  0  0  0  0  0  0  0
    6.4138   -6.4855    0.0000 O   0  0  0  0  0  0  0  0  0  0  0  0
    7.7128   -8.7354    0.0000 N   0  0  0  0  0  0  0  0  0  0  0  0
    6.4138   -9.4854    0.0000 C   0  0  0  0  0  0  0  0  0  0  0  0
    5.1149   -8.7354    0.0000 C   0  0  0  0  0  0  0  0  0  0  0  0
    3.8159   -9.4854    0.0000 C   0  0  0  0  0  0  0  0  0  0  0  0
    2.5168   -8.7354    0.0000 C   0  0  0  0  0  0  0  0  0  0  0  0
    2.5168   -7.2354    0.0000 C   0  0  0  0  0  0  0  0  0  0  0  0
    3.8159   -6.4855    0.0000 C   0  0  0  0  0  0  0  0  0  0  0  0
    5.1149   -7.2354    0.0000 C   0  0  0  0  0  0  0  0  0  0  0  0
    1.2179   -6.4855    0.0000 O   0  0  0  0  0  0  0  0  0  0  0  0
   -0.0811   -7.2354    0.0000 C   0  0  0  0  0  0  0  0  0  0  0  0
   12.9089   -8.7354    0.0000 O   0  0  0  0  0  0  0  0  0  0  0  0
  1  2  1  0  0  0  0
  1  3  2  0  0  0  0
  1  4  1  0  0  0  0
  5  6  1  0  0  0  0
  6  7  2  0  0  0  0
  7  8  1  0  0  0  0
  8  9  2  0  0  0  0
  9 10  1  0  0  0  0
  5 10  2  0  0  0  0
  2  5  1  0  0  0  0
 11 12  1  0  0  0  0
 12 13  2  0  0  0  0
 12 14  1  0  0  0  0
 15 16  1  0  0  0  0
 16 17  1  0  0  0  0
 17 18  2  0  0  0  0
 18 19  1  0  0  0  0
 19 20  2  0  0  0  0
 20 21  1  0  0  0  0
 16 21  2  0  0  0  0
 22 23  1  0  0  0  0
 19 22  1  0  0  0  0
 14 15  1  0  0  0  0
  2 11  1  1  0  0  0
  4 24  1  0  0  0  0
M  END
> <Value>
5.987162775294828

> <Relation>
=

> <SourceURI>
mol:CHEMBL2204956

$$$$

Generated by Molecular Materials Informatics

 23 24  0  0  0  0  0  0  0  0999 V2000
    9.6614   -8.7354    0.0000 C   0  0  0  0  0  0  0  0  0  0  0  0
    9.6614   -7.2354    0.0000 C   0  0  0  0  0  0  0  0  0  0  0  0
    8.3623   -9.4854    0.0000 O   0  0  0  0  0  0  0  0  0  0  0  0
   10.9604   -9.4854    0.0000 N   0  0  0  0  0  0  0  0  0  0  0  0
   10.9604   -6.4855    0.0000 C   0  0  0  0  0  0  0  0  0  0  0  0
   10.9604   -4.9855    0.0000 C   0  0  0  0  0  0  0  0  0  0  0  0
   12.2595   -4.2355    0.0000 C   0  0  0  0  0  0  0  0  0  0  0  0
   13.5583   -4.9855    0.0000 C   0  0  0  0  0  0  0  0  0  0  0  0
   13.5583   -6.4855    0.0000 C   0  0  0  0  0  0  0  0  0  0  0  0
   12.2595   -7.2354    0.0000 C   0  0  0  0  0  0  0  0  0  0  0  0
    8.3623   -6.4855    0.0000 N   0  0  0  0  0  0  0  0  0  0  0  0
    7.0634   -7.2354    0.0000 C   0  0  0  0  0  0  0  0  0  0  0  0
    5.7644   -6.4855    0.0000 O   0  0  0  0  0  0  0  0  0  0  0  0
    7.0634   -8.7354    0.0000 N   0  0  0  0  0  0  0  0  0  0  0  0
    5.7644   -9.4854    0.0000 C   0  0  0  0  0  0  0  0  0  0  0  0
    4.4653   -8.7354    0.0000 C   0  0  0  0  0  0  0  0  0  0  0  0
    3.1665   -9.4854    0.0000 C   0  0  0  0  0  0  0  0  0  0  0  0
    1.8674   -8.7354    0.0000 C   0  0  0  0  0  0  0  0  0  0  0  0
    1.8674   -7.2354    0.0000 C   0  0  0  0  0  0  0  0  0  0  0  0
    3.1665   -6.4855    0.0000 C   0  0  0  0  0  0  0  0  0  0  0  0
    4.4653   -7.2354    0.0000 C   0  0  0  0  0  0  0  0  0  0  0  0
    0.5684   -6.4855    0.0000 C   0  0  0  0  0  0  0  0  0  0  0  0
   12.2595   -8.7354    0.0000 O   0  0  0  0  0  0  0  0  0  0  0  0
  1  2  1  0  0  0  0
  1  3  2  0  0  0  0
  1  4  1  0  0  0  0
  5  6  1  0  0  0  0
  6  7  2  0  0  0  0
  7  8  1  0  0  0  0
  8  9  2  0  0  0  0
  9 10  1  0  0  0  0
  5 10  2  0  0  0  0
  2  5  1  0  0  0  0
 11 12  1  0  0  0  0
 12 13  2  0  0  0  0
 12 14  1  0  0  0  0
 15 16  1  0  0  0  0
 16 17  1  0  0  0  0
 17 18  2  0  0  0  0
 18 19  1  0  0  0  0
 19 20  2  0  0  0  0
 20 21  1  0  0  0  0
 16 21  2  0  0  0  0
 19 22  1  0  0  0  0
 14 15  1  0  0  0  0
  2 11  1  1  0  0  0
  4 23  1  0  0  0  0
M  END
> <Value>
5.785156151952302

> <Relation>
=

> <SourceURI>
mol:CHEMBL2204955

$$$$

Generated by Molecular Materials Informatics

 21 21  0  0  0  0  0  0  0  0999 V2000
   11.6081   -5.7299    0.0000 C   0  0  0  0  0  0  0  0  0  0  0  0
   10.8581   -7.0289    0.0000 C   0  0  0  0  0  0  0  0  0  0  0  0
   11.6081   -8.3280    0.0000 C   0  0  0  0  0  0  0  0  0  0  0  0
   13.1081   -8.3280    0.0000 C   0  0  0  0  0  0  0  0  0  0  0  0
   13.8581   -7.0289    0.0000 C   0  0  0  0  0  0  0  0  0  0  0  0
   13.1081   -5.7299    0.0000 O   0  0  0  0  0  0  0  0  0  0  0  0
   10.8581   -4.4308    0.0000 N   0  0  0  0  0  0  0  0  0  0  0  0
    9.3581   -4.4308    0.0000 O   0  0  0  0  0  0  0  0  0  0  0  0
   13.8581   -9.6269    0.0000 C   0  0  0  0  0  0  0  0  0  0  0  0
    9.3581   -7.0289    0.0000 N   0  0  0  0  0  0  0  0  0  0  0  0
    8.6081   -8.3280    0.0000 C   0  0  0  0  0  0  0  0  0  0  0  0
    9.3581   -9.6269    0.0000 O   0  0  0  0  0  0  0  0  0  0  0  0
    7.1081   -8.3280    0.0000 N   0  0  0  0  0  0  0  0  0  0  0  0
    6.3581   -7.0289    0.0000 C   0  0  0  0  0  0  0  0  0  0  0  0
    4.8581   -7.0289    0.0000 C   0  0  0  0  0  0  0  0  0  0  0  0
    4.1081   -8.3280    0.0000 C   0  0  0  0  0  0  0  0  0  0  0  0
    2.6081   -8.3280    0.0000 C   0  0  0  0  0  0  0  0  0  0  0  0
    1.8581   -7.0289    0.0000 C   0  0  0  0  0  0  0  0  0  0  0  0
    2.6081   -5.7299    0.0000 C   0  0  0  0  0  0  0  0  0  0  0  0
    4.1081   -5.7299    0.0000 C   0  0  0  0  0  0  0  0  0  0  0  0
    0.3581   -7.0289    0.0000 F   0  0  0  0  0  0  0  0  0  0  0  0
  1  2  1  0  0  0  0
  2  3  1  0  0  0  0
  3  4  1  0  0  0  0
  4  5  1  0  0  0  0
  1  6  2  0  0  0  0
  7  8  1  0  0  0  0
  1  7  1  0  0  0  0
  4  9  1  0  0  0  0
 10 11  1  0  0  0  0
 11 12  2  0  0  0  0
 11 13  1  0  0  0  0
 14 15  1  0  0  0  0
 15 16  1  0  0  0  0
 16 17  2  0  0  0  0
 17 18  1  0  0  0  0
 18 19  2  0  0  0  0
 19 20  1  0  0  0  0
 15 20  2  0  0  0  0
 18 21  1  0  0  0  0
 13 14  1  0  0  0  0
  2 10  1  6  0  0  0
M  END
> <Value>
6.136677139879544

> <Relation>
=

> <SourceURI>
mol:CHEMBL2204954

$$$$

Generated by Molecular Materials Informatics

 21 21  0  0  0  0  0  0  0  0999 V2000
   11.5641   -5.7299    0.0000 C   0  0  0  0  0  0  0  0  0  0  0  0
   10.8141   -7.0289    0.0000 C   0  0  0  0  0  0  0  0  0  0  0  0
   11.5641   -8.3280    0.0000 C   0  0  0  0  0  0  0  0  0  0  0  0
   13.0641   -8.3280    0.0000 C   0  0  0  0  0  0  0  0  0  0  0  0
   13.8141   -7.0289    0.0000 C   0  0  0  0  0  0  0  0  0  0  0  0
   13.0641   -5.7299    0.0000 O   0  0  0  0  0  0  0  0  0  0  0  0
   10.8141   -4.4308    0.0000 N   0  0  0  0  0  0  0  0  0  0  0  0
    9.3141   -4.4308    0.0000 O   0  0  0  0  0  0  0  0  0  0  0  0
    9.3141   -7.0289    0.0000 N   0  0  0  0  0  0  0  0  0  0  0  0
    8.5641   -8.3280    0.0000 C   0  0  0  0  0  0  0  0  0  0  0  0
    9.3141   -9.6269    0.0000 O   0  0  0  0  0  0  0  0  0  0  0  0
    7.0641   -8.3280    0.0000 N   0  0  0  0  0  0  0  0  0  0  0  0
    6.3141   -7.0289    0.0000 C   0  0  0  0  0  0  0  0  0  0  0  0
    4.8141   -7.0289    0.0000 C   0  0  0  0  0  0  0  0  0  0  0  0
    4.0641   -8.3280    0.0000 C   0  0  0  0  0  0  0  0  0  0  0  0
    2.5641   -8.3280    0.0000 C   0  0  0  0  0  0  0  0  0  0  0  0
    1.8141   -7.0289    0.0000 C   0  0  0  0  0  0  0  0  0  0  0  0
    2.5641   -5.7299    0.0000 C   0  0  0  0  0  0  0  0  0  0  0  0
    4.0641   -5.7299    0.0000 C   0  0  0  0  0  0  0  0  0  0  0  0
    0.3141   -7.0289    0.0000 C   0  0  0  0  0  0  0  0  0  0  0  0
   13.8141   -9.6269    0.0000 C   0  0  0  0  0  0  0  0  0  0  0  0
  1  2  1  0  0  0  0
  2  3  1  0  0  0  0
  3  4  1  0  0  0  0
  4  5  1  0  0  0  0
  1  6  2  0  0  0  0
  7  8  1  0  0  0  0
  1  7  1  0  0  0  0
  9 10  1  0  0  0  0
 10 11  2  0  0  0  0
 10 12  1  0  0  0  0
 13 14  1  0  0  0  0
 14 15  1  0  0  0  0
 15 16  2  0  0  0  0
 16 17  1  0  0  0  0
 17 18  2  0  0  0  0
 18 19  1  0  0  0  0
 14 19  2  0  0  0  0
 17 20  1  0  0  0  0
 12 13  1  0  0  0  0
  2  9  1  6  0  0  0
  4 21  1  0  0  0  0
M  END
> <Value>
6.3872161432802645

> <Relation>
=

> <SourceURI>
mol:CHEMBL2204953

$$$$

Generated by Molecular Materials Informatics

 22 22  0  0  0  0  0  0  0  0999 V2000
   11.6709   -4.6844    0.0000 C   0  0  0  0  0  0  0  0  0  0  0  0
   10.9209   -5.9835    0.0000 C   0  0  0  0  0  0  0  0  0  0  0  0
   11.6709   -7.2823    0.0000 C   0  0  0  0  0  0  0  0  0  0  0  0
   13.1709   -7.2823    0.0000 C   0  0  0  0  0  0  0  0  0  0  0  0
   13.9208   -5.9833    0.0000 C   0  0  0  0  0  0  0  0  0  0  0  0
   13.1709   -4.6844    0.0000 O   0  0  0  0  0  0  0  0  0  0  0  0
   10.9209   -3.3853    0.0000 N   0  0  0  0  0  0  0  0  0  0  0  0
    9.4209   -3.3853    0.0000 O   0  0  0  0  0  0  0  0  0  0  0  0
   13.9208   -8.5814    0.0000 C   0  0  0  0  0  0  0  0  0  0  0  0
    9.4209   -5.9835    0.0000 N   0  0  0  0  0  0  0  0  0  0  0  0
    8.6709   -7.2823    0.0000 C   0  0  0  0  0  0  0  0  0  0  0  0
    9.4209   -8.5814    0.0000 O   0  0  0  0  0  0  0  0  0  0  0  0
    7.1709   -7.2823    0.0000 N   0  0  0  0  0  0  0  0  0  0  0  0
    6.4210   -8.5814    0.0000 C   0  0  0  0  0  0  0  0  0  0  0  0
    4.9210   -8.5814    0.0000 C   0  0  0  0  0  0  0  0  0  0  0  0
    4.1710   -9.8805    0.0000 C   0  0  0  0  0  0  0  0  0  0  0  0
    2.6710   -9.8805    0.0000 C   0  0  0  0  0  0  0  0  0  0  0  0
    1.9210   -8.5814    0.0000 C   0  0  0  0  0  0  0  0  0  0  0  0
    2.6710   -7.2823    0.0000 C   0  0  0  0  0  0  0  0  0  0  0  0
    4.1710   -7.2823    0.0000 C   0  0  0  0  0  0  0  0  0  0  0  0
    0.4210   -8.5814    0.0000 O   0  0  0  0  0  0  0  0  0  0  0  0
   -0.3289   -9.8805    0.0000 C   0  0  0  0  0  0  0  0  0  0  0  0
  1  2  1  0  0  0  0
  2  3  1  0  0  0  0
  3  4  1  0  0  0  0
  4  5  1  0  0  0  0
  1  6  2  0  0  0  0
  7  8  1  0  0  0  0
  1  7  1  0  0  0  0
  4  9  1  0  0  0  0
 10 11  1  0  0  0  0
 11 12  2  0  0  0  0
 11 13  1  0  0  0  0
 14 15  1  0  0  0  0
 15 16  1  0  0  0  0
 16 17  2  0  0  0  0
 17 18  1  0  0  0  0
 18 19  2  0  0  0  0
 19 20  1  0  0  0  0
 15 20  2  0  0  0  0
 21 22  1  0  0  0  0
 18 21  1  0  0  0  0
 13 14  1  0  0  0  0
  2 10  1  6  0  0  0
M  END
> <Value>
6.080921907623926

> <Relation>
=

> <SourceURI>
mol:CHEMBL2204952

$$$$

Generated by Molecular Materials Informatics

 21 21  0  0  0  0  0  0  0  0999 V2000
    1.8819   -8.0996    0.0000 C   0  0  0  0  0  0  0  0  0  0  0  0
    3.1808   -7.3496    0.0000 C   0  0  0  0  0  0  0  0  0  0  0  0
    3.1808   -5.8496    0.0000 C   0  0  0  0  0  0  0  0  0  0  0  0
    1.8819   -5.0997    0.0000 C   0  0  0  0  0  0  0  0  0  0  0  0
    0.5828   -5.8496    0.0000 C   0  0  0  0  0  0  0  0  0  0  0  0
    0.5828   -7.3496    0.0000 O   0  0  0  0  0  0  0  0  0  0  0  0
    1.8819   -9.5996    0.0000 N   0  0  0  0  0  0  0  0  0  0  0  0
    3.1808  -10.3496    0.0000 O   0  0  0  0  0  0  0  0  0  0  0  0
    1.8819   -3.5997    0.0000 C   0  0  0  0  0  0  0  0  0  0  0  0
    4.4799   -8.0996    0.0000 N   0  0  0  0  0  0  0  0  0  0  0  0
    5.7790   -7.3496    0.0000 C   0  0  0  0  0  0  0  0  0  0  0  0
    5.7790   -5.8496    0.0000 O   0  0  0  0  0  0  0  0  0  0  0  0
    7.0779   -8.0996    0.0000 N   0  0  0  0  0  0  0  0  0  0  0  0
    8.3769   -7.3496    0.0000 C   0  0  0  0  0  0  0  0  0  0  0  0
    9.6760   -8.0996    0.0000 C   0  0  0  0  0  0  0  0  0  0  0  0
   10.9751   -7.3496    0.0000 C   0  0  0  0  0  0  0  0  0  0  0  0
   12.2740   -8.0996    0.0000 C   0  0  0  0  0  0  0  0  0  0  0  0
   12.2740   -9.5996    0.0000 C   0  0  0  0  0  0  0  0  0  0  0  0
   10.9751  -10.3496    0.0000 C   0  0  0  0  0  0  0  0  0  0  0  0
    9.6760   -9.5996    0.0000 C   0  0  0  0  0  0  0  0  0  0  0  0
   13.5731   -7.3496    0.0000 F   0  0  0  0  0  0  0  0  0  0  0  0
  1  2  1  0  0  0  0
  2  3  1  0  0  0  0
  3  4  1  0  0  0  0
  4  5  1  0  0  0  0
  1  6  2  0  0  0  0
  7  8  1  0  0  0  0
  1  7  1  0  0  0  0
  4  9  1  0  0  0  0
 10 11  1  0  0  0  0
 11 12  2  0  0  0  0
 11 13  1  0  0  0  0
 14 15  1  0  0  0  0
 15 16  1  0  0  0  0
 16 17  2  0  0  0  0
 17 18  1  0  0  0  0
 18 19  2  0  0  0  0
 19 20  1  0  0  0  0
 15 20  2  0  0  0  0
 17 21  1  0  0  0  0
 13 14  1  0  0  0  0
  2 10  1  6  0  0  0
M  END
> <Value>
6.161150909262744

> <Relation>
=

> <SourceURI>
mol:CHEMBL2204951

$$$$

Generated by Molecular Materials Informatics

 22 22  0  0  0  0  0  0  0  0999 V2000
    1.2722   -8.0996    0.0000 C   0  0  0  0  0  0  0  0  0  0  0  0
    2.5711   -7.3496    0.0000 C   0  0  0  0  0  0  0  0  0  0  0  0
    2.5711   -5.8496    0.0000 C   0  0  0  0  0  0  0  0  0  0  0  0
    1.2722   -5.0997    0.0000 C   0  0  0  0  0  0  0  0  0  0  0  0
   -0.0269   -5.8496    0.0000 C   0  0  0  0  0  0  0  0  0  0  0  0
   -0.0269   -7.3496    0.0000 O   0  0  0  0  0  0  0  0  0  0  0  0
    1.2722   -9.5996    0.0000 N   0  0  0  0  0  0  0  0  0  0  0  0
    2.5711  -10.3496    0.0000 O   0  0  0  0  0  0  0  0  0  0  0  0
    1.2722   -3.5997    0.0000 C   0  0  0  0  0  0  0  0  0  0  0  0
    3.8702   -8.0996    0.0000 N   0  0  0  0  0  0  0  0  0  0  0  0
    5.1693   -7.3496    0.0000 C   0  0  0  0  0  0  0  0  0  0  0  0
    5.1693   -5.8496    0.0000 O   0  0  0  0  0  0  0  0  0  0  0  0
    6.4682   -8.0996    0.0000 N   0  0  0  0  0  0  0  0  0  0  0  0
    7.7673   -7.3496    0.0000 C   0  0  0  0  0  0  0  0  0  0  0  0
    9.0663   -8.0996    0.0000 C   0  0  0  0  0  0  0  0  0  0  0  0
   10.3654   -7.3496    0.0000 C   0  0  0  0  0  0  0  0  0  0  0  0
   11.6643   -8.0996    0.0000 C   0  0  0  0  0  0  0  0  0  0  0  0
   11.6643   -9.5996    0.0000 C   0  0  0  0  0  0  0  0  0  0  0  0
   10.3654  -10.3496    0.0000 C   0  0  0  0  0  0  0  0  0  0  0  0
    9.0663   -9.5996    0.0000 C   0  0  0  0  0  0  0  0  0  0  0  0
   12.9634   -7.3496    0.0000 O   0  0  0  0  0  0  0  0  0  0  0  0
   14.2625   -8.0996    0.0000 C   0  0  0  0  0  0  0  0  0  0  0  0
  1  2  1  0  0  0  0
  2  3  1  0  0  0  0
  3  4  1  0  0  0  0
  4  5  1  0  0  0  0
  1  6  2  0  0  0  0
  7  8  1  0  0  0  0
  1  7  1  0  0  0  0
  4  9  1  0  0  0  0
 10 11  1  0  0  0  0
 11 12  2  0  0  0  0
 11 13  1  0  0  0  0
 14 15  1  0  0  0  0
 15 16  1  0  0  0  0
 16 17  2  0  0  0  0
 17 18  1  0  0  0  0
 18 19  2  0  0  0  0
 19 20  1  0  0  0  0
 15 20  2  0  0  0  0
 21 22  1  0  0  0  0
 17 21  1  0  0  0  0
 13 14  1  0  0  0  0
  2 10  1  6  0  0  0
M  END
> <Value>
6.5376020021010435

> <Relation>
=

> <SourceURI>
mol:CHEMBL2204950

$$$$

Generated by Molecular Materials Informatics

 22 22  0  0  0  0  0  0  0  0999 V2000
    2.5704   -8.0996    0.0000 C   0  0  0  0  0  0  0  0  0  0  0  0
    3.8695   -7.3496    0.0000 C   0  0  0  0  0  0  0  0  0  0  0  0
    3.8695   -5.8496    0.0000 C   0  0  0  0  0  0  0  0  0  0  0  0
    2.5704   -5.0997    0.0000 C   0  0  0  0  0  0  0  0  0  0  0  0
    1.2715   -5.8496    0.0000 C   0  0  0  0  0  0  0  0  0  0  0  0
    1.2715   -7.3496    0.0000 O   0  0  0  0  0  0  0  0  0  0  0  0
    2.5704   -9.5996    0.0000 N   0  0  0  0  0  0  0  0  0  0  0  0
    3.8695  -10.3496    0.0000 O   0  0  0  0  0  0  0  0  0  0  0  0
    2.5704   -3.5997    0.0000 C   0  0  0  0  0  0  0  0  0  0  0  0
    5.1686   -8.0996    0.0000 N   0  0  0  0  0  0  0  0  0  0  0  0
    6.4676   -7.3496    0.0000 C   0  0  0  0  0  0  0  0  0  0  0  0
    6.4676   -5.8496    0.0000 O   0  0  0  0  0  0  0  0  0  0  0  0
    7.7666   -8.0996    0.0000 N   0  0  0  0  0  0  0  0  0  0  0  0
    9.0656   -7.3496    0.0000 C   0  0  0  0  0  0  0  0  0  0  0  0
   10.3647   -8.0996    0.0000 C   0  0  0  0  0  0  0  0  0  0  0  0
   11.6636   -7.3496    0.0000 C   0  0  0  0  0  0  0  0  0  0  0  0
   12.9627   -8.0996    0.0000 C   0  0  0  0  0  0  0  0  0  0  0  0
   12.9627   -9.5996    0.0000 C   0  0  0  0  0  0  0  0  0  0  0  0
   11.6636  -10.3496    0.0000 C   0  0  0  0  0  0  0  0  0  0  0  0
   10.3647   -9.5996    0.0000 C   0  0  0  0  0  0  0  0  0  0  0  0
   11.6636   -5.8496    0.0000 O   0  0  0  0  0  0  0  0  0  0  0  0
   12.9627   -5.0997    0.0000 C   0  0  0  0  0  0  0  0  0  0  0  0
  1  2  1  0  0  0  0
  2  3  1  0  0  0  0
  3  4  1  0  0  0  0
  4  5  1  0  0  0  0
  1  6  2  0  0  0  0
  7  8  1  0  0  0  0
  1  7  1  0  0  0  0
  4  9  1  0  0  0  0
 10 11  1  0  0  0  0
 11 12  2  0  0  0  0
 11 13  1  0  0  0  0
 14 15  1  0  0  0  0
 15 16  1  0  0  0  0
 16 17  2  0  0  0  0
 17 18  1  0  0  0  0
 18 19  2  0  0  0  0
 19 20  1  0  0  0  0
 15 20  2  0  0  0  0
 21 22  1  0  0  0  0
 16 21  1  0  0  0  0
 13 14  1  0  0  0  0
  2 10  1  6  0  0  0
M  END
> <Value>
6.2441251443275085

> <Relation>
=

> <SourceURI>
mol:CHEMBL2204949

$$$$

Generated by Molecular Materials Informatics

 19 19  0  0  0  0  0  0  0  0999 V2000
   10.4681   -5.7299    0.0000 C   0  0  0  0  0  0  0  0  0  0  0  0
    9.7181   -7.0289    0.0000 C   0  0  0  0  0  0  0  0  0  0  0  0
   10.4681   -8.3280    0.0000 C   0  0  0  0  0  0  0  0  0  0  0  0
   11.9681   -8.3280    0.0000 C   0  0  0  0  0  0  0  0  0  0  0  0
   12.7181   -7.0289    0.0000 C   0  0  0  0  0  0  0  0  0  0  0  0
   11.9681   -5.7299    0.0000 O   0  0  0  0  0  0  0  0  0  0  0  0
    9.7181   -4.4308    0.0000 N   0  0  0  0  0  0  0  0  0  0  0  0
    8.2181   -4.4308    0.0000 O   0  0  0  0  0  0  0  0  0  0  0  0
    8.2181   -7.0289    0.0000 N   0  0  0  0  0  0  0  0  0  0  0  0
    7.4681   -8.3280    0.0000 C   0  0  0  0  0  0  0  0  0  0  0  0
    8.2181   -9.6269    0.0000 O   0  0  0  0  0  0  0  0  0  0  0  0
    5.9681   -8.3280    0.0000 N   0  0  0  0  0  0  0  0  0  0  0  0
    5.2181   -7.0289    0.0000 C   0  0  0  0  0  0  0  0  0  0  0  0
    3.7181   -7.0289    0.0000 C   0  0  0  0  0  0  0  0  0  0  0  0
    2.8365   -8.2424    0.0000 C   0  0  0  0  0  0  0  0  0  0  0  0
    1.4100   -7.7789    0.0000 C   0  0  0  0  0  0  0  0  0  0  0  0
    1.4100   -6.2789    0.0000 C   0  0  0  0  0  0  0  0  0  0  0  0
    2.8365   -5.8153    0.0000 S   0  0  0  0  0  0  0  0  0  0  0  0
   12.7181   -9.6269    0.0000 C   0  0  0  0  0  0  0  0  0  0  0  0
  1  2  1  0  0  0  0
  2  3  1  0  0  0  0
  3  4  1  0  0  0  0
  4  5  1  0  0  0  0
  1  6  2  0  0  0  0
  7  8  1  0  0  0  0
  1  7  1  0  0  0  0
  9 10  1  0  0  0  0
 10 11  2  0  0  0  0
 10 12  1  0  0  0  0
 14 15  2  0  0  0  0
 15 16  1  0  0  0  0
 16 17  2  0  0  0  0
 17 18  1  0  0  0  0
 14 18  1  0  0  0  0
 13 14  1  0  0  0  0
 12 13  1  0  0  0  0
  2  9  1  6  0  0  0
  4 19  1  0  0  0  0
M  END
> <Value>
6.180456064458132

> <Relation>
=

> <SourceURI>
mol:CHEMBL2204948

$$$$

Generated by Molecular Materials Informatics

 20 20  0  0  0  0  0  0  0  0999 V2000
    2.5711   -8.0996    0.0000 C   0  0  0  0  0  0  0  0  0  0  0  0
    3.8702   -7.3496    0.0000 C   0  0  0  0  0  0  0  0  0  0  0  0
    3.8702   -5.8496    0.0000 C   0  0  0  0  0  0  0  0  0  0  0  0
    2.5711   -5.0997    0.0000 C   0  0  0  0  0  0  0  0  0  0  0  0
    1.2722   -5.8496    0.0000 C   0  0  0  0  0  0  0  0  0  0  0  0
    1.2722   -7.3496    0.0000 O   0  0  0  0  0  0  0  0  0  0  0  0
    2.5711   -9.5996    0.0000 N   0  0  0  0  0  0  0  0  0  0  0  0
    3.8702  -10.3496    0.0000 O   0  0  0  0  0  0  0  0  0  0  0  0
    5.1693   -8.0996    0.0000 N   0  0  0  0  0  0  0  0  0  0  0  0
    6.4682   -7.3496    0.0000 C   0  0  0  0  0  0  0  0  0  0  0  0
    6.4682   -5.8496    0.0000 O   0  0  0  0  0  0  0  0  0  0  0  0
    7.7673   -8.0996    0.0000 N   0  0  0  0  0  0  0  0  0  0  0  0
    9.0663   -7.3496    0.0000 C   0  0  0  0  0  0  0  0  0  0  0  0
    9.0663   -5.8496    0.0000 C   0  0  0  0  0  0  0  0  0  0  0  0
   11.6643   -5.8496    0.0000 C   0  0  0  0  0  0  0  0  0  0  0  0
   10.3654   -8.0996    0.0000 C   0  0  0  0  0  0  0  0  0  0  0  0
   10.3654   -5.0997    0.0000 C   0  0  0  0  0  0  0  0  0  0  0  0
   11.6643   -7.3496    0.0000 C   0  0  0  0  0  0  0  0  0  0  0  0
   12.9634   -5.0997    0.0000 C   0  0  0  0  0  0  0  0  0  0  0  0
    2.5711   -3.5997    0.0000 C   0  0  0  0  0  0  0  0  0  0  0  0
  1  2  1  0  0  0  0
  2  3  1  0  0  0  0
  3  4  1  0  0  0  0
  4  5  1  0  0  0  0
  1  6  2  0  0  0  0
  7  8  1  0  0  0  0
  1  7  1  0  0  0  0
  9 10  1  0  0  0  0
 10 11  2  0  0  0  0
 10 12  1  0  0  0  0
 13 14  1  0  0  0  0
 13 16  2  0  0  0  0
 14 17  2  0  0  0  0
 15 17  1  0  0  0  0
 15 18  2  0  0  0  0
 16 18  1  0  0  0  0
 15 19  1  0  0  0  0
 12 13  1  0  0  0  0
  2  9  1  6  0  0  0
  4 20  1  0  0  0  0
M  END
> <Value>
6.481486060122113

> <Relation>
=

> <SourceURI>
mol:CHEMBL2204947

$$$$

Generated by Molecular Materials Informatics

 20 20  0  0  0  0  0  0  0  0999 V2000
    2.5315   -8.0996    0.0000 C   0  0  0  0  0  0  0  0  0  0  0  0
    3.8305   -7.3496    0.0000 C   0  0  0  0  0  0  0  0  0  0  0  0
    3.8305   -5.8497    0.0000 C   0  0  0  0  0  0  0  0  0  0  0  0
    2.5315   -5.0997    0.0000 C   0  0  0  0  0  0  0  0  0  0  0  0
    1.2324   -5.8497    0.0000 C   0  0  0  0  0  0  0  0  0  0  0  0
    1.2324   -7.3496    0.0000 O   0  0  0  0  0  0  0  0  0  0  0  0
    2.5315   -9.5996    0.0000 N   0  0  0  0  0  0  0  0  0  0  0  0
    3.8305  -10.3495    0.0000 O   0  0  0  0  0  0  0  0  0  0  0  0
    2.5315   -3.5998    0.0000 C   0  0  0  0  0  0  0  0  0  0  0  0
    5.1294   -8.0996    0.0000 N   0  0  0  0  0  0  0  0  0  0  0  0
    6.4284   -7.3496    0.0000 C   0  0  0  0  0  0  0  0  0  0  0  0
    6.4284   -5.8497    0.0000 O   0  0  0  0  0  0  0  0  0  0  0  0
    7.7275   -8.0996    0.0000 N   0  0  0  0  0  0  0  0  0  0  0  0
    9.0263   -7.3496    0.0000 C   0  0  0  0  0  0  0  0  0  0  0  0
    9.0263   -5.8497    0.0000 C   0  0  0  0  0  0  0  0  0  0  0  0
   10.3254   -5.0997    0.0000 C   0  0  0  0  0  0  0  0  0  0  0  0
   11.6244   -5.8497    0.0000 C   0  0  0  0  0  0  0  0  0  0  0  0
   11.6244   -7.3496    0.0000 C   0  0  0  0  0  0  0  0  0  0  0  0
   10.3254   -8.0996    0.0000 C   0  0  0  0  0  0  0  0  0  0  0  0
   12.9235   -5.0997    0.0000 F   0  0  0  0  0  0  0  0  0  0  0  0
  1  2  1  0  0  0  0
  2  3  1  0  0  0  0
  3  4  1  0  0  0  0
  4  5  1  0  0  0  0
  1  6  2  0  0  0  0
  7  8  1  0  0  0  0
  1  7  1  0  0  0  0
  4  9  1  0  0  0  0
 10 11  1  0  0  0  0
 11 12  2  0  0  0  0
 11 13  1  0  0  0  0
 14 15  1  0  0  0  0
 15 16  2  0  0  0  0
 16 17  1  0  0  0  0
 17 18  2  0  0  0  0
 18 19  1  0  0  0  0
 14 19  2  0  0  0  0
 17 20  1  0  0  0  0
 13 14  1  0  0  0  0
  2 10  1  6  0  0  0
M  END
> <Value>
5.6020599913279625

> <Relation>
=

> <SourceURI>
mol:CHEMBL2204946

$$$$

Generated by Molecular Materials Informatics

 21 21  0  0  0  0  0  0  0  0999 V2000
    1.9218   -8.0996    0.0000 C   0  0  0  0  0  0  0  0  0  0  0  0
    3.2209   -7.3496    0.0000 C   0  0  0  0  0  0  0  0  0  0  0  0
    3.2209   -5.8497    0.0000 C   0  0  0  0  0  0  0  0  0  0  0  0
    1.9218   -5.0997    0.0000 C   0  0  0  0  0  0  0  0  0  0  0  0
    0.6228   -5.8497    0.0000 C   0  0  0  0  0  0  0  0  0  0  0  0
    0.6228   -7.3496    0.0000 O   0  0  0  0  0  0  0  0  0  0  0  0
    1.9218   -9.5996    0.0000 N   0  0  0  0  0  0  0  0  0  0  0  0
    3.2209  -10.3495    0.0000 O   0  0  0  0  0  0  0  0  0  0  0  0
    1.9218   -3.5998    0.0000 C   0  0  0  0  0  0  0  0  0  0  0  0
    4.5197   -8.0996    0.0000 N   0  0  0  0  0  0  0  0  0  0  0  0
    5.8188   -7.3496    0.0000 C   0  0  0  0  0  0  0  0  0  0  0  0
    5.8188   -5.8497    0.0000 O   0  0  0  0  0  0  0  0  0  0  0  0
    7.1178   -8.0996    0.0000 N   0  0  0  0  0  0  0  0  0  0  0  0
    8.4167   -7.3496    0.0000 C   0  0  0  0  0  0  0  0  0  0  0  0
    8.4167   -5.8497    0.0000 C   0  0  0  0  0  0  0  0  0  0  0  0
    9.7158   -5.0997    0.0000 C   0  0  0  0  0  0  0  0  0  0  0  0
   11.0148   -5.8497    0.0000 C   0  0  0  0  0  0  0  0  0  0  0  0
   11.0148   -7.3496    0.0000 C   0  0  0  0  0  0  0  0  0  0  0  0
    9.7158   -8.0996    0.0000 C   0  0  0  0  0  0  0  0  0  0  0  0
   12.3139   -5.0997    0.0000 O   0  0  0  0  0  0  0  0  0  0  0  0
   13.6127   -5.8497    0.0000 C   0  0  0  0  0  0  0  0  0  0  0  0
  1  2  1  0  0  0  0
  2  3  1  0  0  0  0
  3  4  1  0  0  0  0
  4  5  1  0  0  0  0
  1  6  2  0  0  0  0
  7  8  1  0  0  0  0
  1  7  1  0  0  0  0
  4  9  1  0  0  0  0
 10 11  1  0  0  0  0
 11 12  2  0  0  0  0
 11 13  1  0  0  0  0
 14 15  1  0  0  0  0
 15 16  2  0  0  0  0
 16 17  1  0  0  0  0
 17 18  2  0  0  0  0
 18 19  1  0  0  0  0
 14 19  2  0  0  0  0
 20 21  1  0  0  0  0
 17 20  1  0  0  0  0
 13 14  1  0  0  0  0
  2 10  1  6  0  0  0
M  END
> <Value>
6.2441251443275085

> <Relation>
=

> <SourceURI>
mol:CHEMBL2204945

$$$$

Generated by Molecular Materials Informatics

 25 26  0  0  0  0  0  0  0  0999 V2000
   12.8560   -5.5867    0.0000 C   0  0  0  0  0  0  0  0  0  0  0  0
   11.5572   -6.3369    0.0000 C   0  0  0  0  0  0  0  0  0  0  0  0
   11.5572   -7.8367    0.0000 C   0  0  0  0  0  0  0  0  0  0  0  0
   12.8560   -8.5869    0.0000 C   0  0  0  0  0  0  0  0  0  0  0  0
   14.1551   -7.8369    0.0000 C   0  0  0  0  0  0  0  0  0  0  0  0
   14.1551   -6.3367    0.0000 O   0  0  0  0  0  0  0  0  0  0  0  0
   12.8560   -4.0867    0.0000 N   0  0  0  0  0  0  0  0  0  0  0  0
   11.5572   -3.3368    0.0000 O   0  0  0  0  0  0  0  0  0  0  0  0
   12.8560  -10.0867    0.0000 C   0  0  0  0  0  0  0  0  0  0  0  0
   10.2581   -5.5867    0.0000 N   0  0  0  0  0  0  0  0  0  0  0  0
    8.9590   -6.3367    0.0000 C   0  0  0  0  0  0  0  0  0  0  0  0
    8.9590   -7.8367    0.0000 O   0  0  0  0  0  0  0  0  0  0  0  0
    7.6601   -5.5867    0.0000 N   0  0  0  0  0  0  0  0  0  0  0  0
    3.7629   -7.8367    0.0000 C   0  0  0  0  0  0  0  0  0  0  0  0
    3.7629   -6.3367    0.0000 C   0  0  0  0  0  0  0  0  0  0  0  0
    5.0620   -5.5867    0.0000 C   0  0  0  0  0  0  0  0  0  0  0  0
    6.3611   -6.3367    0.0000 C   0  0  0  0  0  0  0  0  0  0  0  0
    6.3611   -7.8367    0.0000 C   0  0  0  0  0  0  0  0  0  0  0  0
    5.0620   -8.5867    0.0000 C   0  0  0  0  0  0  0  0  0  0  0  0
    2.4640   -8.5867    0.0000 C   0  0  0  0  0  0  0  0  0  0  0  0
    2.4640  -10.0867    0.0000 C   0  0  0  0  0  0  0  0  0  0  0  0
    1.1650  -10.8366    0.0000 C   0  0  0  0  0  0  0  0  0  0  0  0
   -0.1341  -10.0867    0.0000 C   0  0  0  0  0  0  0  0  0  0  0  0
   -0.1341   -8.5867    0.0000 C   0  0  0  0  0  0  0  0  0  0  0  0
    1.1650   -7.8367    0.0000 C   0  0  0  0  0  0  0  0  0  0  0  0
  1  2  1  0  0  0  0
  2  3  1  0  0  0  0
  3  4  1  0  0  0  0
  4  5  1  0  0  0  0
  1  6  2  0  0  0  0
  7  8  1  0  0  0  0
  1  7  1  0  0  0  0
  4  9  1  0  0  0  0
 10 11  1  0  0  0  0
 11 12  2  0  0  0  0
 11 13  1  0  0  0  0
 14 15  1  0  0  0  0
 15 16  2  0  0  0  0
 16 17  1  0  0  0  0
 17 18  2  0  0  0  0
 18 19  1  0  0  0  0
 14 19  2  0  0  0  0
 20 21  1  0  0  0  0
 21 22  2  0  0  0  0
 22 23  1  0  0  0  0
 23 24  2  0  0  0  0
 24 25  1  0  0  0  0
 20 25  2  0  0  0  0
 14 20  1  0  0  0  0
 13 17  1  0  0  0  0
  2 10  1  6  0  0  0
M  END
> <Value>
5.6777807052660805

> <Relation>
=

> <SourceURI>
mol:CHEMBL2204944

$$$$

Generated by Molecular Materials Informatics

 23 24  0  0  0  0  0  0  0  0999 V2000
   16.3276  -29.0249    0.0000 O   0  0  0  0  0  0  0  0  0  0  0  0
   17.6248  -28.2718    0.0000 N   0  0  0  0  0  0  0  0  0  0  0  0
   18.9220  -29.0249    0.0000 C   0  0  0  0  0  0  0  0  0  0  0  0
   20.2267  -28.2718    0.0000 C   0  0  0  0  0  0  0  0  0  0  0  0
   18.9220  -30.5238    0.0000 O   0  0  0  0  0  0  0  0  0  0  0  0
   21.5239  -29.0249    0.0000 N   0  0  0  0  0  0  0  0  0  0  0  0
   20.2267  -26.7729    0.0000 C   0  0  0  0  0  0  0  0  0  0  0  0
   22.8211  -28.2718    0.0000 C   0  0  0  0  0  0  0  0  0  0  0  0
   24.1185  -29.0249    0.0000 N   0  0  0  0  0  0  0  0  0  0  0  0
   22.8211  -26.7729    0.0000 O   0  0  0  0  0  0  0  0  0  0  0  0
   18.9220  -26.0272    0.0000 C   0  0  0  0  0  0  0  0  0  0  0  0
   18.9220  -24.5207    0.0000 C   0  0  0  0  0  0  0  0  0  0  0  0
   17.6248  -26.7729    0.0000 C   0  0  0  0  0  0  0  0  0  0  0  0
   25.4232  -28.2718    0.0000 C   0  0  0  0  0  0  0  0  0  0  0  0
   28.0150  -26.7804    0.0000 C   0  0  0  0  0  0  0  0  0  0  0  0
   26.7100  -26.0349    0.0000 C   0  0  0  0  0  0  0  0  0  0  0  0
   25.4106  -26.7831    0.0000 C   0  0  0  0  0  0  0  0  0  0  0  0
   28.0143  -28.2882    0.0000 C   0  0  0  0  0  0  0  0  0  0  0  0
   26.7202  -29.0308    0.0000 C   0  0  0  0  0  0  0  0  0  0  0  0
   26.7207  -30.5225    0.0000 C   0  0  0  0  0  0  0  0  0  0  0  0
   28.0141  -31.2731    0.0000 C   0  0  0  0  0  0  0  0  0  0  0  0
   29.3093  -30.5152    0.0000 C   0  0  0  0  0  0  0  0  0  0  0  0
   29.3035  -29.0255    0.0000 C   0  0  0  0  0  0  0  0  0  0  0  0
  1  2  1  0  0  0  0
  2  3  1  0  0  0  0
  4  3  1  0  0  0  0
  3  5  2  0  0  0  0
  4  6  1  0  0  0  0
  4  7  1  6  0  0  0
  6  8  1  0  0  0  0
  8  9  1  0  0  0  0
  8 10  2  0  0  0  0
  7 11  1  0  0  0  0
 11 12  1  0  0  0  0
 11 13  1  0  0  0  0
  9 14  1  0  0  0  0
 14 19  2  0  0  0  0
 18 15  2  0  0  0  0
 15 16  1  0  0  0  0
 16 17  2  0  0  0  0
 17 14  1  0  0  0  0
 18 19  1  0  0  0  0
 19 20  1  0  0  0  0
 20 21  2  0  0  0  0
 21 22  1  0  0  0  0
 22 23  2  0  0  0  0
 23 18  1  0  0  0  0
M  END
> <Value>
7.00436480540245

> <Relation>
=

> <SourceURI>
mol:CHEMBL2204943

$$$$

Generated by Molecular Materials Informatics

 19 19  0  0  0  0  0  0  0  0999 V2000
    7.4128  -29.2640    0.0000 O   0  0  0  0  0  0  0  0  0  0  0  0
    8.7100  -28.5139    0.0000 N   0  0  0  0  0  0  0  0  0  0  0  0
   10.0072  -29.2640    0.0000 C   0  0  0  0  0  0  0  0  0  0  0  0
   11.3044  -28.5139    0.0000 C   0  0  0  0  0  0  0  0  0  0  0  0
   10.0072  -30.7640    0.0000 O   0  0  0  0  0  0  0  0  0  0  0  0
   12.6091  -29.2640    0.0000 N   0  0  0  0  0  0  0  0  0  0  0  0
   11.3044  -27.0139    0.0000 C   0  0  0  0  0  0  0  0  0  0  0  0
   13.9061  -28.5139    0.0000 C   0  0  0  0  0  0  0  0  0  0  0  0
   15.2033  -29.2640    0.0000 N   0  0  0  0  0  0  0  0  0  0  0  0
   13.9061  -27.0139    0.0000 O   0  0  0  0  0  0  0  0  0  0  0  0
   10.0072  -26.2639    0.0000 C   0  0  0  0  0  0  0  0  0  0  0  0
   10.0072  -24.7639    0.0000 C   0  0  0  0  0  0  0  0  0  0  0  0
    8.7100  -27.0139    0.0000 C   0  0  0  0  0  0  0  0  0  0  0  0
   16.5005  -28.5139    0.0000 C   0  0  0  0  0  0  0  0  0  0  0  0
   17.7498  -29.3552    0.0000 C   0  0  0  0  0  0  0  0  0  0  0  0
   17.7843  -30.8558    0.0000 C   0  0  0  0  0  0  0  0  0  0  0  0
   19.2282  -31.2713    0.0000 C   0  0  0  0  0  0  0  0  0  0  0  0
   20.0685  -30.0189    0.0000 C   0  0  0  0  0  0  0  0  0  0  0  0
   19.1421  -28.8392    0.0000 O   0  0  0  0  0  0  0  0  0  0  0  0
  1  2  1  0  0  0  0
  2  3  1  0  0  0  0
  4  3  1  0  0  0  0
  3  5  2  0  0  0  0
  4  6  1  0  0  0  0
  4  7  1  6  0  0  0
  6  8  1  0  0  0  0
  8  9  1  0  0  0  0
  8 10  2  0  0  0  0
  7 11  1  0  0  0  0
 11 12  1  0  0  0  0
 11 13  1  0  0  0  0
  9 14  1  0  0  0  0
 14 15  1  0  0  0  0
 16 17  1  0  0  0  0
 15 16  2  0  0  0  0
 17 18  2  0  0  0  0
 18 19  1  0  0  0  0
 19 15  1  0  0  0  0
M  END
> <Value>
5.638272163982407

> <Relation>
=

> <SourceURI>
mol:CHEMBL2205653

$$$$

Generated by Molecular Materials Informatics

 19 19  0  0  0  0  0  0  0  0999 V2000
   -1.0607  -29.5750    0.0000 O   0  0  0  0  0  0  0  0  0  0  0  0
    0.2379  -28.8242    0.0000 N   0  0  0  0  0  0  0  0  0  0  0  0
    1.5365  -29.5750    0.0000 C   0  0  0  0  0  0  0  0  0  0  0  0
    2.8348  -28.8242    0.0000 C   0  0  0  0  0  0  0  0  0  0  0  0
    1.5365  -31.0766    0.0000 O   0  0  0  0  0  0  0  0  0  0  0  0
    4.1410  -29.5750    0.0000 N   0  0  0  0  0  0  0  0  0  0  0  0
    2.8348  -27.3226    0.0000 C   0  0  0  0  0  0  0  0  0  0  0  0
    5.4395  -28.8242    0.0000 C   0  0  0  0  0  0  0  0  0  0  0  0
    6.7381  -29.5750    0.0000 N   0  0  0  0  0  0  0  0  0  0  0  0
    5.4395  -27.3226    0.0000 O   0  0  0  0  0  0  0  0  0  0  0  0
    8.0367  -28.8242    0.0000 C   0  0  0  0  0  0  0  0  0  0  0  0
    1.5365  -26.5718    0.0000 C   0  0  0  0  0  0  0  0  0  0  0  0
    1.5365  -25.0702    0.0000 C   0  0  0  0  0  0  0  0  0  0  0  0
    0.2379  -27.3226    0.0000 C   0  0  0  0  0  0  0  0  0  0  0  0
    9.3402  -29.5829    0.0000 C   0  0  0  0  0  0  0  0  0  0  0  0
   10.6380  -28.8330    0.0000 C   0  0  0  0  0  0  0  0  0  0  0  0
   10.6386  -27.3301    0.0000 C   0  0  0  0  0  0  0  0  0  0  0  0
    9.3248  -26.5795    0.0000 C   0  0  0  0  0  0  0  0  0  0  0  0
    8.0315  -27.3331    0.0000 C   0  0  0  0  0  0  0  0  0  0  0  0
  1  2  1  0  0  0  0
  2  3  1  0  0  0  0
  4  3  1  0  0  0  0
  3  5  2  0  0  0  0
  4  6  1  0  0  0  0
  4  7  1  6  0  0  0
  6  8  1  0  0  0  0
  8  9  1  0  0  0  0
  8 10  2  0  0  0  0
  9 11  1  0  0  0  0
  7 12  1  0  0  0  0
 12 13  1  0  0  0  0
 12 14  1  0  0  0  0
 11 15  2  0  0  0  0
 15 16  1  0  0  0  0
 16 17  2  0  0  0  0
 17 18  1  0  0  0  0
 18 19  2  0  0  0  0
 19 11  1  0  0  0  0
M  END
> <Value>
5.7539691977437

> <Error>
0.3706659238053751

> <Relation>
=

> <SourceURI>
mol:CHEMBL2205652

$$$$

Generated by Molecular Materials Informatics

 23 24  0  0  0  0  0  0  0  0999 V2000
    9.6134  -23.5374    0.0000 O   0  0  0  0  0  0  0  0  0  0  0  0
   10.9191  -22.7912    0.0000 N   0  0  0  0  0  0  0  0  0  0  0  0
   12.2173  -23.5374    0.0000 C   0  0  0  0  0  0  0  0  0  0  0  0
   13.5156  -22.7912    0.0000 C   0  0  0  0  0  0  0  0  0  0  0  0
   12.2173  -25.0449    0.0000 O   0  0  0  0  0  0  0  0  0  0  0  0
   14.8138  -23.5374    0.0000 N   0  0  0  0  0  0  0  0  0  0  0  0
   13.5156  -21.2912    0.0000 C   0  0  0  0  0  0  0  0  0  0  0  0
   16.1195  -22.7912    0.0000 C   0  0  0  0  0  0  0  0  0  0  0  0
   17.4177  -23.5374    0.0000 N   0  0  0  0  0  0  0  0  0  0  0  0
   16.1195  -21.2912    0.0000 O   0  0  0  0  0  0  0  0  0  0  0  0
   18.7159  -22.7912    0.0000 C   0  0  0  0  0  0  0  0  0  0  0  0
   20.0140  -23.5374    0.0000 C   0  0  0  0  0  0  0  0  0  0  0  0
   14.8164  -20.5383    0.0000 C   0  0  0  0  0  0  0  0  0  0  0  0
   14.8169  -19.0396    0.0000 C   0  0  0  0  0  0  0  0  0  0  0  0
   13.5178  -18.2844    0.0000 C   0  0  0  0  0  0  0  0  0  0  0  0
   12.2160  -19.0451    0.0000 C   0  0  0  0  0  0  0  0  0  0  0  0
   12.2209  -20.5418    0.0000 C   0  0  0  0  0  0  0  0  0  0  0  0
   20.0140  -25.0374    0.0000 C   0  0  0  0  0  0  0  0  0  0  0  0
   18.7129  -25.7894    0.0000 C   0  0  0  0  0  0  0  0  0  0  0  0
   18.7124  -27.2883    0.0000 C   0  0  0  0  0  0  0  0  0  0  0  0
   20.0115  -28.0433    0.0000 C   0  0  0  0  0  0  0  0  0  0  0  0
   21.3208  -27.2826    0.0000 C   0  0  0  0  0  0  0  0  0  0  0  0
   21.3159  -25.7859    0.0000 C   0  0  0  0  0  0  0  0  0  0  0  0
  1  2  1  0  0  0  0
  2  3  1  0  0  0  0
  4  3  1  0  0  0  0
  3  5  2  0  0  0  0
  4  6  1  0  0  0  0
  4  7  1  6  0  0  0
  6  8  1  0  0  0  0
  8  9  1  0  0  0  0
  8 10  2  0  0  0  0
  9 11  1  0  0  0  0
 11 12  1  0  0  0  0
  7 13  2  0  0  0  0
 13 14  1  0  0  0  0
 14 15  2  0  0  0  0
 15 16  1  0  0  0  0
 16 17  2  0  0  0  0
 17  7  1  0  0  0  0
 12 18  1  0  0  0  0
 18 19  2  0  0  0  0
 19 20  1  0  0  0  0
 20 21  2  0  0  0  0
 21 22  1  0  0  0  0
 22 23  2  0  0  0  0
 23 18  1  0  0  0  0
M  END
> <Value>
5.721246399047171

> <Relation>
=

> <SourceURI>
mol:CHEMBL2205651

$$$$

Generated by Molecular Materials Informatics

 22 23  0  0  0  0  0  0  0  0999 V2000
    8.0059  -23.8167    0.0000 C   0  0  0  0  0  0  0  0  0  0  0  0
    9.3048  -24.5634    0.0000 C   0  0  0  0  0  0  0  0  0  0  0  0
    9.2988  -26.0660    0.0000 C   0  0  0  0  0  0  0  0  0  0  0  0
   10.5965  -26.8202    0.0000 C   0  0  0  0  0  0  0  0  0  0  0  0
   11.8972  -26.0658    0.0000 C   0  0  0  0  0  0  0  0  0  0  0  0
   11.8930  -24.5581    0.0000 C   0  0  0  0  0  0  0  0  0  0  0  0
   10.5943  -23.8174    0.0000 C   0  0  0  0  0  0  0  0  0  0  0  0
   -1.1025  -24.5634    0.0000 O   0  0  0  0  0  0  0  0  0  0  0  0
    0.1967  -23.8167    0.0000 N   0  0  0  0  0  0  0  0  0  0  0  0
    1.4957  -24.5634    0.0000 C   0  0  0  0  0  0  0  0  0  0  0  0
    2.8022  -23.8167    0.0000 C   0  0  0  0  0  0  0  0  0  0  0  0
    1.4957  -26.0643    0.0000 O   0  0  0  0  0  0  0  0  0  0  0  0
    4.1012  -24.5634    0.0000 N   0  0  0  0  0  0  0  0  0  0  0  0
    2.8022  -22.3081    0.0000 C   0  0  0  0  0  0  0  0  0  0  0  0
    5.4002  -23.8167    0.0000 C   0  0  0  0  0  0  0  0  0  0  0  0
    6.6992  -24.5634    0.0000 N   0  0  0  0  0  0  0  0  0  0  0  0
    5.4002  -22.3081    0.0000 O   0  0  0  0  0  0  0  0  0  0  0  0
    4.1037  -21.5624    0.0000 C   0  0  0  0  0  0  0  0  0  0  0  0
    4.1043  -20.0628    0.0000 C   0  0  0  0  0  0  0  0  0  0  0  0
    2.8044  -19.3071    0.0000 C   0  0  0  0  0  0  0  0  0  0  0  0
    1.4942  -20.0683    0.0000 C   0  0  0  0  0  0  0  0  0  0  0  0
    1.4992  -21.5659    0.0000 C   0  0  0  0  0  0  0  0  0  0  0  0
  1  2  1  0  0  0  0
  2  3  2  0  0  0  0
  3  4  1  0  0  0  0
  4  5  2  0  0  0  0
  5  6  1  0  0  0  0
  6  7  2  0  0  0  0
  7  2  1  0  0  0  0
  8  9  1  0  0  0  0
  9 10  1  0  0  0  0
 11 10  1  0  0  0  0
 10 12  2  0  0  0  0
 11 13  1  0  0  0  0
 11 14  1  6  0  0  0
 13 15  1  0  0  0  0
 15 16  1  0  0  0  0
 15 17  2  0  0  0  0
 16  1  1  0  0  0  0
 14 18  2  0  0  0  0
 18 19  1  0  0  0  0
 19 20  2  0  0  0  0
 20 21  1  0  0  0  0
 21 22  2  0  0  0  0
 22 14  1  0  0  0  0
M  END
> <Value>
6.008773924307505

> <Relation>
=

> <SourceURI>
mol:CHEMBL2205650

$$$$

Generated by Molecular Materials Informatics

 25 26  0  0  0  0  0  0  0  0999 V2000
    4.0641   -5.1380    0.0000 C   0  0  0  0  0  0  0  0  0  0  0  0
    3.3141   -6.4371    0.0000 C   0  0  0  0  0  0  0  0  0  0  0  0
    5.5641   -5.1380    0.0000 O   0  0  0  0  0  0  0  0  0  0  0  0
    3.3141   -3.8391    0.0000 N   0  0  0  0  0  0  0  0  0  0  0  0
    4.0641   -7.7362    0.0000 N   0  0  0  0  0  0  0  0  0  0  0  0
    5.5641   -7.7362    0.0000 C   0  0  0  0  0  0  0  0  0  0  0  0
    6.3141   -9.0351    0.0000 O   0  0  0  0  0  0  0  0  0  0  0  0
    6.3141   -6.4371    0.0000 N   0  0  0  0  0  0  0  0  0  0  0  0
    7.8141   -6.4371    0.0000 C   0  0  0  0  0  0  0  0  0  0  0  0
    8.5641   -7.7362    0.0000 C   0  0  0  0  0  0  0  0  0  0  0  0
   10.0641   -7.7362    0.0000 C   0  0  0  0  0  0  0  0  0  0  0  0
   10.8141   -9.0351    0.0000 C   0  0  0  0  0  0  0  0  0  0  0  0
   12.3141   -9.0351    0.0000 C   0  0  0  0  0  0  0  0  0  0  0  0
   13.0641   -7.7362    0.0000 C   0  0  0  0  0  0  0  0  0  0  0  0
   14.5641   -7.7362    0.0000 C   0  0  0  0  0  0  0  0  0  0  0  0
   15.3141   -9.0351    0.0000 C   0  0  0  0  0  0  0  0  0  0  0  0
   14.5641  -10.3342    0.0000 C   0  0  0  0  0  0  0  0  0  0  0  0
   13.0641  -10.3342    0.0000 C   0  0  0  0  0  0  0  0  0  0  0  0
    1.8141   -6.4371    0.0000 C   0  0  0  0  0  0  0  0  0  0  0  0
    1.0641   -7.7362    0.0000 C   0  0  0  0  0  0  0  0  0  0  0  0
   -0.4359   -7.7362    0.0000 C   0  0  0  0  0  0  0  0  0  0  0  0
   -1.1859   -6.4371    0.0000 C   0  0  0  0  0  0  0  0  0  0  0  0
   -0.4359   -5.1380    0.0000 C   0  0  0  0  0  0  0  0  0  0  0  0
    1.0641   -5.1380    0.0000 C   0  0  0  0  0  0  0  0  0  0  0  0
    1.8141   -3.8391    0.0000 O   0  0  0  0  0  0  0  0  0  0  0  0
  1  2  1  0  0  0  0
  1  3  2  0  0  0  0
  1  4  1  0  0  0  0
  5  6  1  0  0  0  0
  6  7  2  0  0  0  0
  6  8  1  0  0  0  0
  9 10  1  0  0  0  0
 10 11  1  0  0  0  0
 11 12  1  0  0  0  0
 13 14  1  0  0  0  0
 14 15  2  0  0  0  0
 15 16  1  0  0  0  0
 16 17  2  0  0  0  0
 17 18  1  0  0  0  0
 13 18  2  0  0  0  0
 12 13  1  0  0  0  0
  8  9  1  0  0  0  0
  2  5  1  1  0  0  0
 19 20  1  0  0  0  0
 20 21  2  0  0  0  0
 21 22  1  0  0  0  0
 22 23  2  0  0  0  0
 23 24  1  0  0  0  0
 19 24  2  0  0  0  0
  2 19  1  0  0  0  0
  4 25  1  0  0  0  0
M  END
> <Value>
5.259637310505756

> <Relation>
=

> <SourceURI>
mol:CHEMBL2205649

$$$$

Generated by Molecular Materials Informatics

 26 27  0  0  0  0  0  0  0  0999 V2000
    4.0641   -5.1380    0.0000 C   0  0  0  0  0  0  0  0  0  0  0  0
    3.3141   -6.4371    0.0000 C   0  0  0  0  0  0  0  0  0  0  0  0
    1.8141   -6.4371    0.0000 C   0  0  0  0  0  0  0  0  0  0  0  0
    5.5641   -5.1380    0.0000 O   0  0  0  0  0  0  0  0  0  0  0  0
    3.3141   -3.8391    0.0000 N   0  0  0  0  0  0  0  0  0  0  0  0
    4.0641   -7.7362    0.0000 N   0  0  0  0  0  0  0  0  0  0  0  0
    5.5641   -7.7362    0.0000 C   0  0  0  0  0  0  0  0  0  0  0  0
    6.3141   -9.0351    0.0000 O   0  0  0  0  0  0  0  0  0  0  0  0
    6.3141   -6.4371    0.0000 N   0  0  0  0  0  0  0  0  0  0  0  0
    7.8141   -6.4371    0.0000 C   0  0  0  0  0  0  0  0  0  0  0  0
    8.5641   -7.7362    0.0000 C   0  0  0  0  0  0  0  0  0  0  0  0
   10.0641   -7.7362    0.0000 C   0  0  0  0  0  0  0  0  0  0  0  0
   10.8141   -9.0351    0.0000 C   0  0  0  0  0  0  0  0  0  0  0  0
   12.3141   -9.0351    0.0000 C   0  0  0  0  0  0  0  0  0  0  0  0
   13.0641   -7.7362    0.0000 C   0  0  0  0  0  0  0  0  0  0  0  0
   14.5641   -7.7362    0.0000 C   0  0  0  0  0  0  0  0  0  0  0  0
   15.3141   -9.0351    0.0000 C   0  0  0  0  0  0  0  0  0  0  0  0
   14.5641  -10.3342    0.0000 C   0  0  0  0  0  0  0  0  0  0  0  0
   13.0641  -10.3342    0.0000 C   0  0  0  0  0  0  0  0  0  0  0  0
    1.0641   -7.7362    0.0000 C   0  0  0  0  0  0  0  0  0  0  0  0
    1.8141   -9.0351    0.0000 C   0  0  0  0  0  0  0  0  0  0  0  0
    1.0641  -10.3342    0.0000 C   0  0  0  0  0  0  0  0  0  0  0  0
   -0.4359  -10.3342    0.0000 C   0  0  0  0  0  0  0  0  0  0  0  0
   -1.1859   -9.0351    0.0000 C   0  0  0  0  0  0  0  0  0  0  0  0
   -0.4359   -7.7362    0.0000 C   0  0  0  0  0  0  0  0  0  0  0  0
    1.8141   -3.8391    0.0000 O   0  0  0  0  0  0  0  0  0  0  0  0
  1  2  1  0  0  0  0
  2  3  1  0  0  0  0
  1  4  2  0  0  0  0
  1  5  1  0  0  0  0
  6  7  1  0  0  0  0
  7  8  2  0  0  0  0
  7  9  1  0  0  0  0
 10 11  1  0  0  0  0
 11 12  1  0  0  0  0
 12 13  1  0  0  0  0
 14 15  1  0  0  0  0
 15 16  2  0  0  0  0
 16 17  1  0  0  0  0
 17 18  2  0  0  0  0
 18 19  1  0  0  0  0
 14 19  2  0  0  0  0
 13 14  1  0  0  0  0
  9 10  1  0  0  0  0
  2  6  1  1  0  0  0
 20 21  1  0  0  0  0
 21 22  2  0  0  0  0
 22 23  1  0  0  0  0
 23 24  2  0  0  0  0
 24 25  1  0  0  0  0
 20 25  2  0  0  0  0
  3 20  1  0  0  0  0
  5 26  1  0  0  0  0
M  END
> <Value>
5.552841968657781

> <Relation>
=

> <SourceURI>
mol:CHEMBL2205648

$$$$

Generated by Molecular Materials Informatics

 23 23  0  0  0  0  0  0  0  0999 V2000
   12.1075   -8.1166    0.0000 C   0  0  0  0  0  0  0  0  0  0  0  0
   12.1075   -6.6166    0.0000 C   0  0  0  0  0  0  0  0  0  0  0  0
   13.4066   -5.8667    0.0000 C   0  0  0  0  0  0  0  0  0  0  0  0
   13.4066   -4.3667    0.0000 C   0  0  0  0  0  0  0  0  0  0  0  0
   12.1075   -3.6167    0.0000 C   0  0  0  0  0  0  0  0  0  0  0  0
   10.8085   -8.8666    0.0000 O   0  0  0  0  0  0  0  0  0  0  0  0
   13.4066   -8.8666    0.0000 N   0  0  0  0  0  0  0  0  0  0  0  0
   14.7055   -8.1166    0.0000 O   0  0  0  0  0  0  0  0  0  0  0  0
   10.8085   -5.8667    0.0000 N   0  0  0  0  0  0  0  0  0  0  0  0
    9.5096   -6.6166    0.0000 C   0  0  0  0  0  0  0  0  0  0  0  0
    9.5096   -8.1166    0.0000 O   0  0  0  0  0  0  0  0  0  0  0  0
    8.2106   -5.8667    0.0000 N   0  0  0  0  0  0  0  0  0  0  0  0
    6.9115   -6.6166    0.0000 C   0  0  0  0  0  0  0  0  0  0  0  0
    5.6126   -5.8667    0.0000 C   0  0  0  0  0  0  0  0  0  0  0  0
    4.3136   -6.6166    0.0000 C   0  0  0  0  0  0  0  0  0  0  0  0
    3.0145   -5.8667    0.0000 C   0  0  0  0  0  0  0  0  0  0  0  0
    1.7155   -6.6166    0.0000 C   0  0  0  0  0  0  0  0  0  0  0  0
    1.7155   -8.1166    0.0000 C   0  0  0  0  0  0  0  0  0  0  0  0
    0.4166   -8.8666    0.0000 C   0  0  0  0  0  0  0  0  0  0  0  0
   -0.8824   -8.1166    0.0000 C   0  0  0  0  0  0  0  0  0  0  0  0
   -0.8824   -6.6166    0.0000 C   0  0  0  0  0  0  0  0  0  0  0  0
    0.4166   -5.8667    0.0000 C   0  0  0  0  0  0  0  0  0  0  0  0
   14.7055   -6.6166    0.0000 C   0  0  0  0  0  0  0  0  0  0  0  0
  1  2  1  0  0  0  0
  2  3  1  0  0  0  0
  3  4  1  0  0  0  0
  4  5  1  0  0  0  0
  1  6  2  0  0  0  0
  7  8  1  0  0  0  0
  1  7  1  0  0  0  0
  9 10  1  0  0  0  0
 10 11  2  0  0  0  0
 10 12  1  0  0  0  0
 13 14  1  0  0  0  0
 14 15  1  0  0  0  0
 15 16  1  0  0  0  0
 17 18  1  0  0  0  0
 18 19  2  0  0  0  0
 19 20  1  0  0  0  0
 20 21  2  0  0  0  0
 21 22  1  0  0  0  0
 17 22  2  0  0  0  0
 16 17  1  0  0  0  0
 12 13  1  0  0  0  0
  2  9  1  1  0  0  0
  3 23  1  6  0  0  0
M  END
> <Value>
5.0

> <Relation>
<

> <SourceURI>
mol:CHEMBL2205647

$$$$

Generated by Molecular Materials Informatics

 23 23  0  0  0  0  0  0  0  0999 V2000
    0.6218   -7.4809    0.0000 C   0  0  0  0  0  0  0  0  0  0  0  0
    1.9209   -6.7309    0.0000 C   0  0  0  0  0  0  0  0  0  0  0  0
    1.9209   -5.2309    0.0000 C   0  0  0  0  0  0  0  0  0  0  0  0
    0.6218   -4.4810    0.0000 C   0  0  0  0  0  0  0  0  0  0  0  0
   -0.6771   -5.2309    0.0000 C   0  0  0  0  0  0  0  0  0  0  0  0
   -0.6771   -6.7309    0.0000 O   0  0  0  0  0  0  0  0  0  0  0  0
    0.6218   -8.9809    0.0000 N   0  0  0  0  0  0  0  0  0  0  0  0
    1.9209   -9.7309    0.0000 O   0  0  0  0  0  0  0  0  0  0  0  0
    3.2200   -7.4809    0.0000 N   0  0  0  0  0  0  0  0  0  0  0  0
    4.5189   -6.7309    0.0000 C   0  0  0  0  0  0  0  0  0  0  0  0
    4.5189   -5.2309    0.0000 O   0  0  0  0  0  0  0  0  0  0  0  0
    5.8180   -7.4809    0.0000 N   0  0  0  0  0  0  0  0  0  0  0  0
    7.1171   -6.7309    0.0000 C   0  0  0  0  0  0  0  0  0  0  0  0
    8.4162   -7.4809    0.0000 C   0  0  0  0  0  0  0  0  0  0  0  0
    9.7151   -6.7309    0.0000 C   0  0  0  0  0  0  0  0  0  0  0  0
   11.0142   -7.4809    0.0000 C   0  0  0  0  0  0  0  0  0  0  0  0
   12.3133   -6.7309    0.0000 C   0  0  0  0  0  0  0  0  0  0  0  0
   12.3133   -5.2309    0.0000 C   0  0  0  0  0  0  0  0  0  0  0  0
   13.6122   -4.4810    0.0000 C   0  0  0  0  0  0  0  0  0  0  0  0
   14.9113   -5.2309    0.0000 C   0  0  0  0  0  0  0  0  0  0  0  0
   14.9113   -6.7309    0.0000 C   0  0  0  0  0  0  0  0  0  0  0  0
   13.6122   -7.4809    0.0000 C   0  0  0  0  0  0  0  0  0  0  0  0
    0.6218   -2.9810    0.0000 C   0  0  0  0  0  0  0  0  0  0  0  0
  1  2  1  0  0  0  0
  2  3  1  0  0  0  0
  3  4  1  0  0  0  0
  4  5  1  0  0  0  0
  1  6  2  0  0  0  0
  7  8  1  0  0  0  0
  1  7  1  0  0  0  0
  9 10  1  0  0  0  0
 10 11  2  0  0  0  0
 10 12  1  0  0  0  0
 13 14  1  0  0  0  0
 14 15  1  0  0  0  0
 15 16  1  0  0  0  0
 17 18  1  0  0  0  0
 18 19  2  0  0  0  0
 19 20  1  0  0  0  0
 20 21  2  0  0  0  0
 21 22  1  0  0  0  0
 17 22  2  0  0  0  0
 16 17  1  0  0  0  0
 12 13  1  0  0  0  0
  2  9  1  6  0  0  0
  4 23  1  0  0  0  0
M  END
> <Value>
5.638272163982407

> <Relation>
=

> <SourceURI>
mol:CHEMBL2204966

$$$$

Generated by Molecular Materials Informatics

 24 25  0  0  0  0  0  0  0  0999 V2000
    8.7154  -10.1613    0.0000 O   0  0  0  0  0  0  0  0  0  0  0  0
   10.0125   -9.4157    0.0000 N   0  0  0  0  0  0  0  0  0  0  0  0
   11.3098  -10.1613    0.0000 C   0  0  0  0  0  0  0  0  0  0  0  0
   12.6069   -9.4157    0.0000 C   0  0  0  0  0  0  0  0  0  0  0  0
   11.3098  -11.6601    0.0000 O   0  0  0  0  0  0  0  0  0  0  0  0
   13.9115  -10.1613    0.0000 N   0  0  0  0  0  0  0  0  0  0  0  0
   12.6069   -7.9093    0.0000 C   0  0  0  0  0  0  0  0  0  0  0  0
   15.2087   -9.4080    0.0000 C   0  0  0  0  0  0  0  0  0  0  0  0
   16.5058  -10.1613    0.0000 N   0  0  0  0  0  0  0  0  0  0  0  0
   15.2087   -7.9093    0.0000 O   0  0  0  0  0  0  0  0  0  0  0  0
   17.8029   -9.4080    0.0000 C   0  0  0  0  0  0  0  0  0  0  0  0
   19.1077  -10.1613    0.0000 C   0  0  0  0  0  0  0  0  0  0  0  0
   20.4048   -9.4080    0.0000 C   0  0  0  0  0  0  0  0  0  0  0  0
   21.7019  -10.1613    0.0000 C   0  0  0  0  0  0  0  0  0  0  0  0
   21.6961  -11.6618    0.0000 C   0  0  0  0  0  0  0  0  0  0  0  0
   22.9918  -12.4149    0.0000 C   0  0  0  0  0  0  0  0  0  0  0  0
   24.2980  -11.6616    0.0000 C   0  0  0  0  0  0  0  0  0  0  0  0
   24.2940  -10.1560    0.0000 C   0  0  0  0  0  0  0  0  0  0  0  0
   22.9896   -9.4164    0.0000 C   0  0  0  0  0  0  0  0  0  0  0  0
   13.9141   -7.1647    0.0000 C   0  0  0  0  0  0  0  0  0  0  0  0
   13.9146   -5.6672    0.0000 C   0  0  0  0  0  0  0  0  0  0  0  0
   12.6091   -4.9126    0.0000 C   0  0  0  0  0  0  0  0  0  0  0  0
   11.3084   -5.6727    0.0000 C   0  0  0  0  0  0  0  0  0  0  0  0
   11.3133   -7.1682    0.0000 C   0  0  0  0  0  0  0  0  0  0  0  0
  1  2  1  0  0  0  0
  2  3  1  0  0  0  0
  3  4  1  0  0  0  0
  3  5  2  0  0  0  0
  4  6  1  0  0  0  0
  4  7  1  6  0  0  0
  6  8  1  0  0  0  0
  8  9  1  0  0  0  0
  8 10  2  0  0  0  0
  9 11  1  0  0  0  0
 11 12  1  0  0  0  0
 12 13  1  0  0  0  0
 13 14  1  0  0  0  0
 14 15  2  0  0  0  0
 15 16  1  0  0  0  0
 16 17  2  0  0  0  0
 17 18  1  0  0  0  0
 18 19  2  0  0  0  0
 19 14  1  0  0  0  0
  7 20  2  0  0  0  0
 20 21  1  0  0  0  0
 21 22  2  0  0  0  0
 22 23  1  0  0  0  0
 23 24  2  0  0  0  0
 24  7  1  0  0  0  0
M  END
> <Value>
5.657577319177793

> <Relation>
=

> <SourceURI>
mol:CHEMBL2204965

$$$$

Generated by Molecular Materials Informatics

 22 22  0  0  0  0  0  0  0  0999 V2000
   -1.5206  -10.2317    0.0000 O   0  0  0  0  0  0  0  0  0  0  0  0
   -0.2234   -9.4860    0.0000 N   0  0  0  0  0  0  0  0  0  0  0  0
    1.0738  -10.2317    0.0000 C   0  0  0  0  0  0  0  0  0  0  0  0
    2.3710   -9.4860    0.0000 C   0  0  0  0  0  0  0  0  0  0  0  0
    1.0738  -11.7307    0.0000 O   0  0  0  0  0  0  0  0  0  0  0  0
    3.6759  -10.2317    0.0000 N   0  0  0  0  0  0  0  0  0  0  0  0
    2.3710   -7.9797    0.0000 C   0  0  0  0  0  0  0  0  0  0  0  0
    4.9731   -9.4785    0.0000 C   0  0  0  0  0  0  0  0  0  0  0  0
    6.2703  -10.2317    0.0000 N   0  0  0  0  0  0  0  0  0  0  0  0
    4.9731   -7.9797    0.0000 O   0  0  0  0  0  0  0  0  0  0  0  0
    7.5675   -9.4785    0.0000 C   0  0  0  0  0  0  0  0  0  0  0  0
    8.8722  -10.2317    0.0000 C   0  0  0  0  0  0  0  0  0  0  0  0
   10.1694   -9.4785    0.0000 C   0  0  0  0  0  0  0  0  0  0  0  0
   11.4668  -10.2317    0.0000 C   0  0  0  0  0  0  0  0  0  0  0  0
   11.4607  -11.7324    0.0000 C   0  0  0  0  0  0  0  0  0  0  0  0
   12.7567  -12.4854    0.0000 C   0  0  0  0  0  0  0  0  0  0  0  0
   14.0630  -11.7322    0.0000 C   0  0  0  0  0  0  0  0  0  0  0  0
   14.0588  -10.2266    0.0000 C   0  0  0  0  0  0  0  0  0  0  0  0
   12.7545   -9.4869    0.0000 C   0  0  0  0  0  0  0  0  0  0  0  0
    1.0738   -7.2340    0.0000 C   0  0  0  0  0  0  0  0  0  0  0  0
    1.0738   -5.7351    0.0000 S   0  0  0  0  0  0  0  0  0  0  0  0
    2.3710   -4.9819    0.0000 C   0  0  0  0  0  0  0  0  0  0  0  0
  1  2  1  0  0  0  0
  2  3  1  0  0  0  0
  3  4  1  0  0  0  0
  3  5  2  0  0  0  0
  4  6  1  0  0  0  0
  4  7  1  6  0  0  0
  6  8  1  0  0  0  0
  8  9  1  0  0  0  0
  8 10  2  0  0  0  0
  9 11  1  0  0  0  0
 11 12  1  0  0  0  0
 12 13  1  0  0  0  0
 13 14  1  0  0  0  0
 14 15  2  0  0  0  0
 15 16  1  0  0  0  0
 16 17  2  0  0  0  0
 17 18  1  0  0  0  0
 18 19  2  0  0  0  0
 19 14  1  0  0  0  0
  7 20  1  0  0  0  0
 20 21  1  0  0  0  0
 21 22  1  0  0  0  0
M  END
> <Value>
5.154901959985743

> <Relation>
=

> <SourceURI>
mol:CHEMBL2204964

$$$$

Generated by Molecular Materials Informatics

 23 24  0  0  0  0  0  0  0  0999 V2000
   19.2878   -4.5224    0.0000 C   0  0  0  0  0  0  0  0  0  0  0  0
   20.5877   -5.2696    0.0000 C   0  0  0  0  0  0  0  0  0  0  0  0
   20.5818   -6.7806    0.0000 C   0  0  0  0  0  0  0  0  0  0  0  0
   21.8804   -7.5278    0.0000 C   0  0  0  0  0  0  0  0  0  0  0  0
   23.1894   -6.7804    0.0000 C   0  0  0  0  0  0  0  0  0  0  0  0
   23.1777   -5.2643    0.0000 C   0  0  0  0  0  0  0  0  0  0  0  0
   21.8782   -4.5231    0.0000 C   0  0  0  0  0  0  0  0  0  0  0  0
   10.1738   -5.2696    0.0000 O   0  0  0  0  0  0  0  0  0  0  0  0
   11.4736   -4.5224    0.0000 N   0  0  0  0  0  0  0  0  0  0  0  0
   12.7811   -5.2696    0.0000 C   0  0  0  0  0  0  0  0  0  0  0  0
   14.0810   -4.5224    0.0000 C   0  0  0  0  0  0  0  0  0  0  0  0
   12.7811   -6.7790    0.0000 O   0  0  0  0  0  0  0  0  0  0  0  0
   15.3808   -5.2696    0.0000 N   0  0  0  0  0  0  0  0  0  0  0  0
   14.0810   -3.0205    0.0000 C   0  0  0  0  0  0  0  0  0  0  0  0
   16.6807   -4.5224    0.0000 C   0  0  0  0  0  0  0  0  0  0  0  0
   17.9880   -5.2696    0.0000 N   0  0  0  0  0  0  0  0  0  0  0  0
   16.6807   -3.0205    0.0000 O   0  0  0  0  0  0  0  0  0  0  0  0
   15.3834   -2.2667    0.0000 C   0  0  0  0  0  0  0  0  0  0  0  0
   15.3839   -0.7660    0.0000 C   0  0  0  0  0  0  0  0  0  0  0  0
   14.0832   -0.0099    0.0000 C   0  0  0  0  0  0  0  0  0  0  0  0
   12.7797   -0.7715    0.0000 C   0  0  0  0  0  0  0  0  0  0  0  0
   12.7846   -2.2701    0.0000 C   0  0  0  0  0  0  0  0  0  0  0  0
   24.4901   -7.5262    0.0000 F   0  0  0  0  0  0  0  0  0  0  0  0
  1  2  1  0  0  0  0
  2  3  2  0  0  0  0
  3  4  1  0  0  0  0
  4  5  2  0  0  0  0
  5  6  1  0  0  0  0
  6  7  2  0  0  0  0
  7  2  1  0  0  0  0
  8  9  1  0  0  0  0
  9 10  1  0  0  0  0
 10 11  1  0  0  0  0
 10 12  2  0  0  0  0
 11 13  1  0  0  0  0
 11 14  1  6  0  0  0
 13 15  1  0  0  0  0
 15 16  1  0  0  0  0
 15 17  2  0  0  0  0
 16  1  1  0  0  0  0
 14 18  2  0  0  0  0
 18 19  1  0  0  0  0
 19 20  2  0  0  0  0
 20 21  1  0  0  0  0
 21 22  2  0  0  0  0
 22 14  1  0  0  0  0
  5 23  1  0  0  0  0
M  END
> <Value>
5.301029995663981

> <Relation>
=

> <SourceURI>
mol:CHEMBL2204963

$$$$

Generated by Molecular Materials Informatics

 22 22  0  0  0  0  0  0  0  0999 V2000
   -0.2161   -4.8425    0.0000 O   0  0  0  0  0  0  0  0  0  0  0  0
    1.0900   -4.0917    0.0000 N   0  0  0  0  0  0  0  0  0  0  0  0
    2.3885   -4.8425    0.0000 C   0  0  0  0  0  0  0  0  0  0  0  0
    3.6871   -4.0917    0.0000 C   0  0  0  0  0  0  0  0  0  0  0  0
    2.3885   -6.3441    0.0000 O   0  0  0  0  0  0  0  0  0  0  0  0
    4.9857   -4.8425    0.0000 N   0  0  0  0  0  0  0  0  0  0  0  0
    3.6871   -2.5901    0.0000 C   0  0  0  0  0  0  0  0  0  0  0  0
    6.2918   -4.0917    0.0000 C   0  0  0  0  0  0  0  0  0  0  0  0
    7.5904   -4.8425    0.0000 N   0  0  0  0  0  0  0  0  0  0  0  0
    6.2918   -2.5901    0.0000 O   0  0  0  0  0  0  0  0  0  0  0  0
    8.8889   -4.0917    0.0000 C   0  0  0  0  0  0  0  0  0  0  0  0
   10.1873   -4.8425    0.0000 C   0  0  0  0  0  0  0  0  0  0  0  0
   11.4934   -4.0917    0.0000 C   0  0  0  0  0  0  0  0  0  0  0  0
   12.7920   -4.8425    0.0000 C   0  0  0  0  0  0  0  0  0  0  0  0
   12.7861   -6.3457    0.0000 C   0  0  0  0  0  0  0  0  0  0  0  0
   14.0834   -7.0964    0.0000 C   0  0  0  0  0  0  0  0  0  0  0  0
   15.3834   -6.3456    0.0000 C   0  0  0  0  0  0  0  0  0  0  0  0
   15.3792   -4.8371    0.0000 C   0  0  0  0  0  0  0  0  0  0  0  0
   14.0812   -4.0924    0.0000 C   0  0  0  0  0  0  0  0  0  0  0  0
    2.3885   -1.8392    0.0000 C   0  0  0  0  0  0  0  0  0  0  0  0
    2.3885   -0.3376    0.0000 C   0  0  0  0  0  0  0  0  0  0  0  0
    1.0900   -2.5901    0.0000 C   0  0  0  0  0  0  0  0  0  0  0  0
  1  2  1  0  0  0  0
  2  3  1  0  0  0  0
  3  4  1  0  0  0  0
  3  5  2  0  0  0  0
  4  6  1  0  0  0  0
  4  7  1  6  0  0  0
  6  8  1  0  0  0  0
  8  9  1  0  0  0  0
  8 10  2  0  0  0  0
  9 11  1  0  0  0  0
 11 12  1  0  0  0  0
 12 13  1  0  0  0  0
 13 14  1  0  0  0  0
 14 15  2  0  0  0  0
 15 16  1  0  0  0  0
 16 17  2  0  0  0  0
 17 18  1  0  0  0  0
 18 19  2  0  0  0  0
 19 14  1  0  0  0  0
  7 20  1  0  0  0  0
 20 21  1  0  0  0  0
 20 22  1  0  0  0  0
M  END
> <Value>
5.468521082957745

> <Relation>
=

> <SourceURI>
mol:CHEMBL2204962

$$$$

Generated by Molecular Materials Informatics

 34 35  0  0  0  0  0  0  0  0999 V2000
    4.8953   -7.4123    0.0000 N   0  0  0  0  0  0  0  0  0  0  0  0
    6.1936   -6.6623    0.0000 C   0  0  0  0  0  0  0  0  0  0  0  0
    7.4920   -7.4123    0.0000 C   0  0  0  0  0  0  0  0  0  0  0  0
   -6.7891   -5.1906    0.0000 C   0  0  0  0  0  0  0  0  0  0  0  0
   -6.7917   -6.6954    0.0000 C   0  0  0  0  0  0  0  0  0  0  0  0
   -5.4953   -7.4461    0.0000 C   0  0  0  0  0  0  0  0  0  0  0  0
   -4.1875   -6.6945    0.0000 C   0  0  0  0  0  0  0  0  0  0  0  0
   -4.1933   -5.1835    0.0000 C   0  0  0  0  0  0  0  0  0  0  0  0
   -5.4988   -4.4401    0.0000 C   0  0  0  0  0  0  0  0  0  0  0  0
   -2.8978   -4.4270    0.0000 C   0  0  0  0  0  0  0  0  0  0  0  0
   -1.5951   -5.1705    0.0000 N   0  0  0  0  0  0  0  0  0  0  0  0
   -2.9053   -2.9272    0.0000 O   0  0  0  0  0  0  0  0  0  0  0  0
   -0.3000   -4.4141    0.0000 C   0  0  0  0  0  0  0  0  0  0  0  0
    1.0022   -5.1654    0.0000 C   0  0  0  0  0  0  0  0  0  0  0  0
    2.2938   -4.4154    0.0000 N   0  0  0  0  0  0  0  0  0  0  0  0
    2.2940   -2.9148    0.0000 C   0  0  0  0  0  0  0  0  0  0  0  0
    0.9916   -2.1672    0.0000 C   0  0  0  0  0  0  0  0  0  0  0  0
   -0.3111   -2.9203    0.0000 C   0  0  0  0  0  0  0  0  0  0  0  0
    1.0043   -6.6652    0.0000 O   0  0  0  0  0  0  0  0  0  0  0  0
    3.5922   -2.1632    0.0000 O   0  0  0  0  0  0  0  0  0  0  0  0
    3.5936   -5.1637    0.0000 C   0  0  0  0  0  0  0  0  0  0  0  0
    3.5953   -6.6637    0.0000 C   0  0  0  0  0  0  0  0  0  0  0  0
    2.2973   -7.4152    0.0000 O   0  0  0  0  0  0  0  0  0  0  0  0
   -8.0889   -4.4417    0.0000 O   0  0  0  0  0  0  0  0  0  0  0  0
   -8.0902   -2.9417    0.0000 C   0  0  0  0  0  0  0  0  0  0  0  0
   -8.0915   -7.4434    0.0000 O   0  0  0  0  0  0  0  0  0  0  0  0
   -9.3895   -6.6917    0.0000 C   0  0  0  0  0  0  0  0  0  0  0  0
   -5.4978   -8.9459    0.0000 O   0  0  0  0  0  0  0  0  0  0  0  0
   -6.7980   -9.6939    0.0000 C   0  0  0  0  0  0  0  0  0  0  0  0
    8.7913   -6.6625    0.0000 O   0  0  0  0  0  0  0  0  0  0  0  0
    7.4916   -8.9123    0.0000 O   0  0  0  0  0  0  0  0  0  0  0  0
   10.0900   -7.4128    0.0000 C   0  0  0  0  0  0  0  0  0  0  0  0
    6.1936   -5.1623    0.0000 C   0  0  0  0  0  0  0  0  0  0  0  0
    7.4927   -4.4123    0.0000 S   0  0  0  0  0  0  0  0  0  0  0  0
 15 16  1  0  0  0  0
 16 17  1  0  0  0  0
 17 18  1  0  0  0  0
  2  3  1  0  0  0  0
 14 19  2  0  0  0  0
  8 10  1  0  0  0  0
 16 20  2  0  0  0  0
  5  6  1  0  0  0  0
 15 21  1  0  0  0  0
 10 11  1  0  0  0  0
 21 22  1  0  0  0  0
 22  1  1  0  0  0  0
 22 23  2  0  0  0  0
 10 12  2  0  0  0  0
  4 24  1  0  0  0  0
  6  7  2  0  0  0  0
 24 25  1  0  0  0  0
 13 11  1  1  0  0  0
  5 26  1  0  0  0  0
 13 14  1  0  0  0  0
 26 27  1  0  0  0  0
  1  2  1  0  0  0  0
  6 28  1  0  0  0  0
  7  8  1  0  0  0  0
 28 29  1  0  0  0  0
  4  5  2  0  0  0  0
  3 30  1  0  0  0  0
  8  9  2  0  0  0  0
  3 31  2  0  0  0  0
  9  4  1  0  0  0  0
 30 32  1  0  0  0  0
 13 18  1  0  0  0  0
  2 33  1  1  0  0  0
 14 15  1  0  0  0  0
 33 34  1  0  0  0  0
M  END
> <Value>
4.298432014944073

> <Relation>
=

> <SourceURI>
mol:CHEMBL245916

$$$$

Generated by Molecular Materials Informatics

 42 45  0  0  0  0  0  0  0  0999 V2000
    5.3641   -8.7441    0.0000 C   0  0  0  0  0  0  0  0  0  0  0  0
    5.3826  -10.2505    0.0000 C   0  0  0  0  0  0  0  0  0  0  0  0
    6.6971  -10.9808    0.0000 C   0  0  0  0  0  0  0  0  0  0  0  0
    7.9862  -10.2001    0.0000 C   0  0  0  0  0  0  0  0  0  0  0  0
    7.9563   -8.6929    0.0000 C   0  0  0  0  0  0  0  0  0  0  0  0
    6.6408   -7.9729    0.0000 C   0  0  0  0  0  0  0  0  0  0  0  0
    9.2359   -7.9151    0.0000 C   0  0  0  0  0  0  0  0  0  0  0  0
    9.2056   -6.4155    0.0000 O   0  0  0  0  0  0  0  0  0  0  0  0
   11.8278   -7.8651    0.0000 C   0  0  0  0  0  0  0  0  0  0  0  0
   13.1525   -8.6005    0.0000 C   0  0  0  0  0  0  0  0  0  0  0  0
   14.4339   -7.8324    0.0000 N   0  0  0  0  0  0  0  0  0  0  0  0
   14.4077   -6.3315    0.0000 C   0  0  0  0  0  0  0  0  0  0  0  0
   13.0907   -5.6037    0.0000 C   0  0  0  0  0  0  0  0  0  0  0  0
   11.7998   -6.3768    0.0000 C   0  0  0  0  0  0  0  0  0  0  0  0
   13.1760  -10.1003    0.0000 O   0  0  0  0  0  0  0  0  0  0  0  0
   15.6993   -5.5610    0.0000 O   0  0  0  0  0  0  0  0  0  0  0  0
   15.7397   -8.5616    0.0000 C   0  0  0  0  0  0  0  0  0  0  0  0
   17.0311   -7.7911    0.0000 C   0  0  0  0  0  0  0  0  0  0  0  0
   17.0018   -6.2913    0.0000 O   0  0  0  0  0  0  0  0  0  0  0  0
    6.7182  -12.4806    0.0000 O   0  0  0  0  0  0  0  0  0  0  0  0
    5.4341  -13.2505    0.0000 C   0  0  0  0  0  0  0  0  0  0  0  0
    4.0979  -11.0195    0.0000 O   0  0  0  0  0  0  0  0  0  0  0  0
    2.7854  -10.2885    0.0000 C   0  0  0  0  0  0  0  0  0  0  0  0
    4.0505   -8.0154    0.0000 O   0  0  0  0  0  0  0  0  0  0  0  0
    4.0207   -6.5155    0.0000 C   0  0  0  0  0  0  0  0  0  0  0  0
   19.6267   -7.7442    0.0000 C   0  0  0  0  0  0  0  0  0  0  0  0
   20.9379   -8.4783    0.0000 C   0  0  0  0  0  0  0  0  0  0  0  0
   19.6039   -6.2444    0.0000 C   0  0  0  0  0  0  0  0  0  0  0  0
   20.8926   -5.4786    0.0000 C   0  0  0  0  0  0  0  0  0  0  0  0
   20.9604   -9.9783    0.0000 O   0  0  0  0  0  0  0  0  0  0  0  0
   22.2266   -7.7051    0.0000 O   0  0  0  0  0  0  0  0  0  0  0  0
   22.2718  -10.7048    0.0000 C   0  0  0  0  0  0  0  0  0  0  0  0
   22.2689   -6.0553    0.0000 C   0  0  0  0  0  0  0  0  0  0  0  0
   23.2582   -4.9236    0.0000 N   0  0  0  0  0  0  0  0  0  0  0  0
   21.0224   -3.9750    0.0000 C   0  0  0  0  0  0  0  0  0  0  0  0
   22.4805   -3.6489    0.0000 C   0  0  0  0  0  0  0  0  0  0  0  0
   22.9284   -2.2244    0.0000 C   0  0  0  0  0  0  0  0  0  0  0  0
   21.9118   -1.1250    0.0000 C   0  0  0  0  0  0  0  0  0  0  0  0
   20.4495   -1.4595    0.0000 C   0  0  0  0  0  0  0  0  0  0  0  0
   20.0163   -2.8835    0.0000 C   0  0  0  0  0  0  0  0  0  0  0  0
   10.5464   -8.6449    0.0000 N   0  0  0  0  0  0  0  0  0  0  0  0
   18.3425   -8.5192    0.0000 N   0  0  0  0  0  0  0  0  0  0  0  0
 13 14  1  0  0  0  0
 10 15  2  0  0  0  0
 12 16  2  0  0  0  0
 11 17  1  0  0  0  0
 17 18  1  0  0  0  0
 18 19  2  0  0  0  0
  3 20  1  0  0  0  0
 20 21  1  0  0  0  0
  2 22  1  0  0  0  0
 22 23  1  0  0  0  0
  1 24  1  0  0  0  0
 24 25  1  0  0  0  0
 26 27  1  0  0  0  0
  1  2  2  0  0  0  0
 26 28  1  1  0  0  0
  2  3  1  0  0  0  0
 28 29  1  0  0  0  0
  3  4  2  0  0  0  0
 27 30  1  0  0  0  0
  4  5  1  0  0  0  0
 27 31  2  0  0  0  0
  5  6  2  0  0  0  0
 30 32  1  0  0  0  0
 29 33  2  0  0  0  0
  6  1  1  0  0  0  0
  5  7  1  0  0  0  0
 33 34  1  0  0  0  0
 34 36  1  0  0  0  0
 35 29  1  0  0  0  0
  7  8  2  0  0  0  0
 35 36  2  0  0  0  0
 36 37  1  0  0  0  0
  9 10  1  0  0  0  0
 37 38  2  0  0  0  0
  9 14  1  0  0  0  0
 38 39  1  0  0  0  0
 10 11  1  0  0  0  0
 39 40  2  0  0  0  0
 40 35  1  0  0  0  0
 11 12  1  0  0  0  0
 12 13  1  0  0  0  0
  7 41  1  0  0  0  0
  9 41  1  1  0  0  0
 18 42  1  0  0  0  0
 42 26  1  0  0  0  0
M  END
> <Value>
4.3655227298392685

> <Error>
0.0

> <Relation>
=

> <SourceURI>
mol:CHEMBL245394

$$$$

Generated by Molecular Materials Informatics

 45 47  0  0  0  0  0  0  0  0999 V2000
   16.4224  -19.7330    0.0000 N   0  0  0  0  0  0  0  0  0  0  0  0
   17.7207  -18.9830    0.0000 C   0  0  0  0  0  0  0  0  0  0  0  0
   19.0191  -19.7330    0.0000 C   0  0  0  0  0  0  0  0  0  0  0  0
    4.7376  -17.5114    0.0000 C   0  0  0  0  0  0  0  0  0  0  0  0
    4.7351  -19.0161    0.0000 C   0  0  0  0  0  0  0  0  0  0  0  0
    6.0316  -19.7670    0.0000 C   0  0  0  0  0  0  0  0  0  0  0  0
    7.3393  -19.0152    0.0000 C   0  0  0  0  0  0  0  0  0  0  0  0
    7.3336  -17.5041    0.0000 C   0  0  0  0  0  0  0  0  0  0  0  0
    6.0280  -16.7610    0.0000 C   0  0  0  0  0  0  0  0  0  0  0  0
    8.6289  -16.7477    0.0000 C   0  0  0  0  0  0  0  0  0  0  0  0
    9.9318  -17.4914    0.0000 N   0  0  0  0  0  0  0  0  0  0  0  0
    8.6216  -15.2477    0.0000 O   0  0  0  0  0  0  0  0  0  0  0  0
   11.2269  -16.7348    0.0000 C   0  0  0  0  0  0  0  0  0  0  0  0
   12.5291  -17.4861    0.0000 C   0  0  0  0  0  0  0  0  0  0  0  0
   13.8207  -16.7359    0.0000 N   0  0  0  0  0  0  0  0  0  0  0  0
   13.8209  -15.2354    0.0000 C   0  0  0  0  0  0  0  0  0  0  0  0
   12.5185  -14.4877    0.0000 C   0  0  0  0  0  0  0  0  0  0  0  0
   11.2158  -15.2410    0.0000 C   0  0  0  0  0  0  0  0  0  0  0  0
   12.5313  -18.9861    0.0000 O   0  0  0  0  0  0  0  0  0  0  0  0
   15.1191  -14.4839    0.0000 O   0  0  0  0  0  0  0  0  0  0  0  0
   15.1205  -17.4846    0.0000 C   0  0  0  0  0  0  0  0  0  0  0  0
   15.1224  -18.9846    0.0000 C   0  0  0  0  0  0  0  0  0  0  0  0
   13.8242  -19.7359    0.0000 O   0  0  0  0  0  0  0  0  0  0  0  0
    3.4378  -16.7626    0.0000 O   0  0  0  0  0  0  0  0  0  0  0  0
    3.4365  -15.2626    0.0000 C   0  0  0  0  0  0  0  0  0  0  0  0
    3.4351  -19.7644    0.0000 O   0  0  0  0  0  0  0  0  0  0  0  0
    2.1371  -19.0124    0.0000 C   0  0  0  0  0  0  0  0  0  0  0  0
    6.0289  -21.2670    0.0000 O   0  0  0  0  0  0  0  0  0  0  0  0
    4.7287  -22.0148    0.0000 C   0  0  0  0  0  0  0  0  0  0  0  0
   17.7207  -17.4830    0.0000 C   0  0  0  0  0  0  0  0  0  0  0  0
   19.0198  -16.7330    0.0000 C   0  0  0  0  0  0  0  0  0  0  0  0
   20.3183  -18.9833    0.0000 O   0  0  0  0  0  0  0  0  0  0  0  0
   19.0187  -21.2330    0.0000 O   0  0  0  0  0  0  0  0  0  0  0  0
   21.6171  -19.7335    0.0000 C   0  0  0  0  0  0  0  0  0  0  0  0
   19.0198  -15.2330    0.0000 C   0  0  0  0  0  0  0  0  0  0  0  0
   20.3187  -14.4830    0.0000 C   0  0  0  0  0  0  0  0  0  0  0  0
   20.3187  -12.9830    0.0000 N   0  0  0  0  0  0  0  0  0  0  0  0
   21.6178  -12.2330    0.0000 C   0  0  0  0  0  0  0  0  0  0  0  0
   21.6178  -10.7330    0.0000 O   0  0  0  0  0  0  0  0  0  0  0  0
   22.9167  -12.9830    0.0000 C   0  0  0  0  0  0  0  0  0  0  0  0
   22.9103  -14.4806    0.0000 C   0  0  0  0  0  0  0  0  0  0  0  0
   24.2080  -15.2304    0.0000 C   0  0  0  0  0  0  0  0  0  0  0  0
   25.5087  -14.4804    0.0000 C   0  0  0  0  0  0  0  0  0  0  0  0
   25.5040  -12.9726    0.0000 C   0  0  0  0  0  0  0  0  0  0  0  0
   24.2053  -12.2295    0.0000 C   0  0  0  0  0  0  0  0  0  0  0  0
 22  1  1  0  0  0  0
 22 23  2  0  0  0  0
 10 12  2  0  0  0  0
  4 24  1  0  0  0  0
  6  7  2  0  0  0  0
 24 25  1  0  0  0  0
 13 11  1  1  0  0  0
  5 26  1  0  0  0  0
 13 14  1  0  0  0  0
 26 27  1  0  0  0  0
  1  2  1  0  0  0  0
  6 28  1  0  0  0  0
  7  8  1  0  0  0  0
 28 29  1  0  0  0  0
  4  5  2  0  0  0  0
  2 30  1  1  0  0  0
  8  9  2  0  0  0  0
 30 31  1  0  0  0  0
  9  4  1  0  0  0  0
  3 32  1  0  0  0  0
 13 18  1  0  0  0  0
  3 33  2  0  0  0  0
 14 15  1  0  0  0  0
 32 34  1  0  0  0  0
 15 16  1  0  0  0  0
 31 35  1  0  0  0  0
 16 17  1  0  0  0  0
 35 36  1  0  0  0  0
 17 18  1  0  0  0  0
 36 37  1  0  0  0  0
  2  3  1  0  0  0  0
 37 38  1  0  0  0  0
 14 19  2  0  0  0  0
 38 39  2  0  0  0  0
  8 10  1  0  0  0  0
 38 40  1  0  0  0  0
 16 20  2  0  0  0  0
 40 41  2  0  0  0  0
  5  6  1  0  0  0  0
 41 42  1  0  0  0  0
 15 21  1  0  0  0  0
 42 43  2  0  0  0  0
 10 11  1  0  0  0  0
 43 44  1  0  0  0  0
 21 22  1  0  0  0  0
 44 45  2  0  0  0  0
 45 40  1  0  0  0  0
M  END
> <Value>
4.419075024324381

> <Relation>
=

> <SourceURI>
mol:CHEMBL247392

$$$$

Generated by Molecular Materials Informatics

 33 34  0  0  0  0  0  0  0  0999 V2000
   -7.4053  -18.0524    0.0000 C   0  0  0  0  0  0  0  0  0  0  0  0
   -7.3829  -19.5566    0.0000 C   0  0  0  0  0  0  0  0  0  0  0  0
   -6.0713  -20.2859    0.0000 C   0  0  0  0  0  0  0  0  0  0  0  0
   -4.7809  -19.5132    0.0000 C   0  0  0  0  0  0  0  0  0  0  0  0
   -4.8109  -18.0035    0.0000 C   0  0  0  0  0  0  0  0  0  0  0  0
   -6.1235  -17.2810    0.0000 C   0  0  0  0  0  0  0  0  0  0  0  0
   -3.5271  -17.2275    0.0000 C   0  0  0  0  0  0  0  0  0  0  0  0
   -2.2133  -17.9514    0.0000 N   0  0  0  0  0  0  0  0  0  0  0  0
   -3.5573  -15.7279    0.0000 O   0  0  0  0  0  0  0  0  0  0  0  0
   -0.9297  -17.1754    0.0000 C   0  0  0  0  0  0  0  0  0  0  0  0
    0.3890  -17.9081    0.0000 C   0  0  0  0  0  0  0  0  0  0  0  0
    1.6690  -17.1386    0.0000 N   0  0  0  0  0  0  0  0  0  0  0  0
    1.6467  -15.6383    0.0000 C   0  0  0  0  0  0  0  0  0  0  0  0
    0.3330  -14.9104    0.0000 C   0  0  0  0  0  0  0  0  0  0  0  0
   -0.9582  -15.6832    0.0000 C   0  0  0  0  0  0  0  0  0  0  0  0
    0.4145  -19.4079    0.0000 O   0  0  0  0  0  0  0  0  0  0  0  0
    2.9332  -14.8672    0.0000 O   0  0  0  0  0  0  0  0  0  0  0  0
    2.9801  -17.8674    0.0000 C   0  0  0  0  0  0  0  0  0  0  0  0
    4.2667  -17.0963    0.0000 C   0  0  0  0  0  0  0  0  0  0  0  0
    4.2423  -15.5966    0.0000 O   0  0  0  0  0  0  0  0  0  0  0  0
   -6.0471  -21.7857    0.0000 O   0  0  0  0  0  0  0  0  0  0  0  0
   -7.3339  -22.5566    0.0000 C   0  0  0  0  0  0  0  0  0  0  0  0
   -8.6702  -20.3266    0.0000 O   0  0  0  0  0  0  0  0  0  0  0  0
   -9.9808  -19.5970    0.0000 C   0  0  0  0  0  0  0  0  0  0  0  0
   -8.7166  -17.3241    0.0000 O   0  0  0  0  0  0  0  0  0  0  0  0
   -8.7415  -15.8243    0.0000 C   0  0  0  0  0  0  0  0  0  0  0  0
    5.5778  -17.8250    0.0000 N   0  0  0  0  0  0  0  0  0  0  0  0
    6.8645  -17.0541    0.0000 C   0  0  0  0  0  0  0  0  0  0  0  0
    8.1756  -17.7828    0.0000 C   0  0  0  0  0  0  0  0  0  0  0  0
    9.4621  -17.0117    0.0000 C   0  0  0  0  0  0  0  0  0  0  0  0
   10.7732  -17.7404    0.0000 O   0  0  0  0  0  0  0  0  0  0  0  0
    9.4378  -15.5119    0.0000 O   0  0  0  0  0  0  0  0  0  0  0  0
   10.7978  -19.2403    0.0000 C   0  0  0  0  0  0  0  0  0  0  0  0
 11 16  2  0  0  0  0
  7  8  1  0  0  0  0
 13 17  2  0  0  0  0
 12 18  1  0  0  0  0
  7  9  2  0  0  0  0
 18 19  1  0  0  0  0
  4  5  1  0  0  0  0
 19 20  2  0  0  0  0
 10  8  1  1  0  0  0
  3 21  1  0  0  0  0
 10 11  1  0  0  0  0
 21 22  1  0  0  0  0
  2  3  1  0  0  0  0
  2 23  1  0  0  0  0
  5  6  2  0  0  0  0
 23 24  1  0  0  0  0
  6  1  1  0  0  0  0
  1 25  1  0  0  0  0
  1  2  2  0  0  0  0
 25 26  1  0  0  0  0
  5  7  1  0  0  0  0
 19 27  1  0  0  0  0
 10 15  1  0  0  0  0
 27 28  1  0  0  0  0
 11 12  1  0  0  0  0
 28 29  1  0  0  0  0
 12 13  1  0  0  0  0
 29 30  1  0  0  0  0
 13 14  1  0  0  0  0
 30 31  1  0  0  0  0
 14 15  1  0  0  0  0
 30 32  2  0  0  0  0
  3  4  2  0  0  0  0
 31 33  1  0  0  0  0
M  END
> <Value>
4.270025714300444

> <Error>
0.0

> <Relation>
=

> <SourceURI>
mol:CHEMBL247189

$$$$

Generated by Molecular Materials Informatics

 39 41  0  0  0  0  0  0  0  0999 V2000
    4.2601  -22.4612    0.0000 C   0  0  0  0  0  0  0  0  0  0  0  0
    4.2734  -23.9633    0.0000 C   0  0  0  0  0  0  0  0  0  0  0  0
    5.5891  -24.6926    0.0000 C   0  0  0  0  0  0  0  0  0  0  0  0
    6.8743  -23.9171    0.0000 C   0  0  0  0  0  0  0  0  0  0  0  0
    6.8440  -22.4135    0.0000 C   0  0  0  0  0  0  0  0  0  0  0  0
    5.5337  -21.6809    0.0000 C   0  0  0  0  0  0  0  0  0  0  0  0
    8.1333  -21.6346    0.0000 C   0  0  0  0  0  0  0  0  0  0  0  0
    8.1022  -20.1352    0.0000 O   0  0  0  0  0  0  0  0  0  0  0  0
   10.7266  -21.5851    0.0000 C   0  0  0  0  0  0  0  0  0  0  0  0
   12.0504  -22.3148    0.0000 C   0  0  0  0  0  0  0  0  0  0  0  0
   13.3236  -21.5505    0.0000 N   0  0  0  0  0  0  0  0  0  0  0  0
   13.2989  -20.0493    0.0000 C   0  0  0  0  0  0  0  0  0  0  0  0
   11.9864  -19.3196    0.0000 C   0  0  0  0  0  0  0  0  0  0  0  0
   10.6912  -20.0953    0.0000 C   0  0  0  0  0  0  0  0  0  0  0  0
   12.0709  -23.8144    0.0000 O   0  0  0  0  0  0  0  0  0  0  0  0
   14.5873  -19.2774    0.0000 O   0  0  0  0  0  0  0  0  0  0  0  0
   14.6339  -22.2782    0.0000 C   0  0  0  0  0  0  0  0  0  0  0  0
   15.9223  -21.5104    0.0000 C   0  0  0  0  0  0  0  0  0  0  0  0
   15.8929  -20.0108    0.0000 O   0  0  0  0  0  0  0  0  0  0  0  0
    5.6062  -26.1924    0.0000 O   0  0  0  0  0  0  0  0  0  0  0  0
    4.3288  -26.9634    0.0000 C   0  0  0  0  0  0  0  0  0  0  0  0
    2.9951  -24.7288    0.0000 O   0  0  0  0  0  0  0  0  0  0  0  0
    1.6823  -24.0062    0.0000 C   0  0  0  0  0  0  0  0  0  0  0  0
    2.9454  -21.7302    0.0000 O   0  0  0  0  0  0  0  0  0  0  0  0
    2.9151  -20.2306    0.0000 C   0  0  0  0  0  0  0  0  0  0  0  0
   17.2365  -22.2382    0.0000 N   0  0  0  0  0  0  0  0  0  0  0  0
   18.5211  -21.4704    0.0000 C   0  0  0  0  0  0  0  0  0  0  0  0
   19.8247  -22.1981    0.0000 C   0  0  0  0  0  0  0  0  0  0  0  0
   18.4942  -19.9704    0.0000 C   0  0  0  0  0  0  0  0  0  0  0  0
   19.8516  -23.6978    0.0000 O   0  0  0  0  0  0  0  0  0  0  0  0
   21.1164  -21.4258    0.0000 O   0  0  0  0  0  0  0  0  0  0  0  0
   21.1626  -24.4255    0.0000 C   0  0  0  0  0  0  0  0  0  0  0  0
   19.7798  -19.1973    0.0000 C   0  0  0  0  0  0  0  0  0  0  0  0
   21.0886  -19.9260    0.0000 C   0  0  0  0  0  0  0  0  0  0  0  0
   22.3732  -19.1542    0.0000 C   0  0  0  0  0  0  0  0  0  0  0  0
   22.3471  -17.6526    0.0000 C   0  0  0  0  0  0  0  0  0  0  0  0
   21.0257  -16.9263    0.0000 C   0  0  0  0  0  0  0  0  0  0  0  0
   19.7465  -17.7026    0.0000 C   0  0  0  0  0  0  0  0  0  0  0  0
    9.4444  -22.3637    0.0000 N   0  0  0  0  0  0  0  0  0  0  0  0
  5  7  1  0  0  0  0
  7  8  2  0  0  0  0
  9 10  1  0  0  0  0
  9 14  1  0  0  0  0
 10 11  1  0  0  0  0
 11 12  1  0  0  0  0
 12 13  1  0  0  0  0
 13 14  1  0  0  0  0
 10 15  2  0  0  0  0
 12 16  2  0  0  0  0
 11 17  1  0  0  0  0
 17 18  1  0  0  0  0
 18 19  2  0  0  0  0
  3 20  1  0  0  0  0
 20 21  1  0  0  0  0
  2 22  1  0  0  0  0
 22 23  1  0  0  0  0
  1 24  1  0  0  0  0
 24 25  1  0  0  0  0
 18 26  1  0  0  0  0
 27 26  1  0  0  0  0
 27 28  1  0  0  0  0
 27 29  1  1  0  0  0
 28 30  1  0  0  0  0
 28 31  2  0  0  0  0
 30 32  1  0  0  0  0
 29 33  1  0  0  0  0
  1  2  2  0  0  0  0
 33 34  2  0  0  0  0
  2  3  1  0  0  0  0
 34 35  1  0  0  0  0
  3  4  2  0  0  0  0
 35 36  2  0  0  0  0
  4  5  1  0  0  0  0
 36 37  1  0  0  0  0
  5  6  2  0  0  0  0
 37 38  2  0  0  0  0
 38 33  1  0  0  0  0
  6  1  1  0  0  0  0
  7 39  1  0  0  0  0
  9 39  1  1  0  0  0
M  END
> <Value>
4.958607314841775

> <Error>
0.0

> <Relation>
=

> <SourceURI>
mol:CHEMBL245713

$$$$

Generated by Molecular Materials Informatics

 36 37  0  0  0  0  0  0  0  0999 V2000
   -6.8090  -11.9256    0.0000 C   0  0  0  0  0  0  0  0  0  0  0  0
   -6.7867  -13.4296    0.0000 C   0  0  0  0  0  0  0  0  0  0  0  0
   -5.4749  -14.1590    0.0000 C   0  0  0  0  0  0  0  0  0  0  0  0
   -4.1847  -13.3863    0.0000 C   0  0  0  0  0  0  0  0  0  0  0  0
   -4.2145  -11.8765    0.0000 C   0  0  0  0  0  0  0  0  0  0  0  0
   -5.5272  -11.1540    0.0000 C   0  0  0  0  0  0  0  0  0  0  0  0
   -2.9309  -11.1007    0.0000 C   0  0  0  0  0  0  0  0  0  0  0  0
   -1.6171  -11.8245    0.0000 N   0  0  0  0  0  0  0  0  0  0  0  0
   -2.9609   -9.6011    0.0000 O   0  0  0  0  0  0  0  0  0  0  0  0
   -0.3333  -11.0485    0.0000 C   0  0  0  0  0  0  0  0  0  0  0  0
    0.9853  -11.7812    0.0000 C   0  0  0  0  0  0  0  0  0  0  0  0
    2.2653  -11.0118    0.0000 N   0  0  0  0  0  0  0  0  0  0  0  0
    2.2429   -9.5112    0.0000 C   0  0  0  0  0  0  0  0  0  0  0  0
    0.9293   -8.7836    0.0000 C   0  0  0  0  0  0  0  0  0  0  0  0
   -0.3620   -9.5563    0.0000 C   0  0  0  0  0  0  0  0  0  0  0  0
    1.0109  -13.2810    0.0000 O   0  0  0  0  0  0  0  0  0  0  0  0
    3.5294   -8.7403    0.0000 O   0  0  0  0  0  0  0  0  0  0  0  0
    3.5764  -11.7405    0.0000 C   0  0  0  0  0  0  0  0  0  0  0  0
    4.8629  -10.9694    0.0000 C   0  0  0  0  0  0  0  0  0  0  0  0
    4.8385   -9.4696    0.0000 O   0  0  0  0  0  0  0  0  0  0  0  0
   -5.4509  -15.6588    0.0000 O   0  0  0  0  0  0  0  0  0  0  0  0
   -6.7376  -16.4296    0.0000 C   0  0  0  0  0  0  0  0  0  0  0  0
   -8.0739  -14.1998    0.0000 O   0  0  0  0  0  0  0  0  0  0  0  0
   -9.3843  -13.4699    0.0000 C   0  0  0  0  0  0  0  0  0  0  0  0
   -8.1203  -11.1970    0.0000 O   0  0  0  0  0  0  0  0  0  0  0  0
   -8.1452   -9.6974    0.0000 C   0  0  0  0  0  0  0  0  0  0  0  0
    6.1740  -11.6981    0.0000 N   0  0  0  0  0  0  0  0  0  0  0  0
    7.4607  -10.9270    0.0000 C   0  0  0  0  0  0  0  0  0  0  0  0
    8.7718  -11.6558    0.0000 C   0  0  0  0  0  0  0  0  0  0  0  0
   10.0585  -10.8847    0.0000 O   0  0  0  0  0  0  0  0  0  0  0  0
    8.7961  -13.1556    0.0000 O   0  0  0  0  0  0  0  0  0  0  0  0
    7.5096  -13.9267    0.0000 C   0  0  0  0  0  0  0  0  0  0  0  0
    7.4363   -9.4272    0.0000 C   0  0  0  0  0  0  0  0  0  0  0  0
    8.7229   -8.6562    0.0000 C   0  0  0  0  0  0  0  0  0  0  0  0
   10.0339   -9.3849    0.0000 C   0  0  0  0  0  0  0  0  0  0  0  0
    8.6985   -7.1563    0.0000 C   0  0  0  0  0  0  0  0  0  0  0  0
 12 18  1  0  0  0  0
  7  9  2  0  0  0  0
 18 19  1  0  0  0  0
  4  5  1  0  0  0  0
 19 20  2  0  0  0  0
 10  8  1  1  0  0  0
  3 21  1  0  0  0  0
 10 11  1  0  0  0  0
 21 22  1  0  0  0  0
  2  3  1  0  0  0  0
  2 23  1  0  0  0  0
  5  6  2  0  0  0  0
 23 24  1  0  0  0  0
  6  1  1  0  0  0  0
  1 25  1  0  0  0  0
  1  2  2  0  0  0  0
 25 26  1  0  0  0  0
  5  7  1  0  0  0  0
 19 27  1  0  0  0  0
 10 15  1  0  0  0  0
 27 28  1  0  0  0  0
 11 12  1  0  0  0  0
 28 29  1  0  0  0  0
 12 13  1  0  0  0  0
 29 30  2  0  0  0  0
 13 14  1  0  0  0  0
 29 31  1  0  0  0  0
 14 15  1  0  0  0  0
 31 32  1  0  0  0  0
  3  4  2  0  0  0  0
 28 33  1  1  0  0  0
 11 16  2  0  0  0  0
 33 34  1  0  0  0  0
  7  8  1  0  0  0  0
 34 35  1  0  0  0  0
 13 17  2  0  0  0  0
 34 36  1  0  0  0  0
M  END
> <Value>
4.335358024443875

> <Error>
0.0

> <Relation>
=

> <SourceURI>
mol:CHEMBL246991

$$$$

Generated by Molecular Materials Informatics

 40 42  0  0  0  0  0  0  0  0999 V2000
   -7.7052   -8.1311    0.0000 C   0  0  0  0  0  0  0  0  0  0  0  0
   -7.6864   -9.6373    0.0000 C   0  0  0  0  0  0  0  0  0  0  0  0
   -6.3731  -10.3637    0.0000 C   0  0  0  0  0  0  0  0  0  0  0  0
   -5.0851   -9.5868    0.0000 C   0  0  0  0  0  0  0  0  0  0  0  0
   -5.1151   -8.0797    0.0000 C   0  0  0  0  0  0  0  0  0  0  0  0
   -6.4297   -7.3562    0.0000 C   0  0  0  0  0  0  0  0  0  0  0  0
   -3.8293   -7.3056    0.0000 C   0  0  0  0  0  0  0  0  0  0  0  0
   -3.8597   -5.8062    0.0000 O   0  0  0  0  0  0  0  0  0  0  0  0
   -1.2358   -7.2531    0.0000 C   0  0  0  0  0  0  0  0  0  0  0  0
    0.0876   -7.9846    0.0000 C   0  0  0  0  0  0  0  0  0  0  0  0
    1.3678   -7.2202    0.0000 N   0  0  0  0  0  0  0  0  0  0  0  0
    1.3415   -5.7196    0.0000 C   0  0  0  0  0  0  0  0  0  0  0  0
    0.0255   -4.9882    0.0000 C   0  0  0  0  0  0  0  0  0  0  0  0
   -1.2642   -5.7651    0.0000 C   0  0  0  0  0  0  0  0  0  0  0  0
    0.1111   -9.4840    0.0000 O   0  0  0  0  0  0  0  0  0  0  0  0
    2.6317   -4.9453    0.0000 O   0  0  0  0  0  0  0  0  0  0  0  0
    2.6724   -7.9455    0.0000 C   0  0  0  0  0  0  0  0  0  0  0  0
    3.9628   -7.1787    0.0000 C   0  0  0  0  0  0  0  0  0  0  0  0
    3.9333   -5.6793    0.0000 O   0  0  0  0  0  0  0  0  0  0  0  0
   -6.3517  -11.8631    0.0000 O   0  0  0  0  0  0  0  0  0  0  0  0
   -7.6348  -12.6370    0.0000 C   0  0  0  0  0  0  0  0  0  0  0  0
   -8.9699  -10.4026    0.0000 O   0  0  0  0  0  0  0  0  0  0  0  0
  -10.2814   -9.6757    0.0000 C   0  0  0  0  0  0  0  0  0  0  0  0
   -9.0175   -7.3987    0.0000 O   0  0  0  0  0  0  0  0  0  0  0  0
   -9.0475   -5.8993    0.0000 C   0  0  0  0  0  0  0  0  0  0  0  0
    6.5630   -7.1349    0.0000 C   0  0  0  0  0  0  0  0  0  0  0  0
    7.8730   -7.8651    0.0000 C   0  0  0  0  0  0  0  0  0  0  0  0
    6.5403   -5.6351    0.0000 C   0  0  0  0  0  0  0  0  0  0  0  0
    7.8275   -4.8656    0.0000 C   0  0  0  0  0  0  0  0  0  0  0  0
    9.1317   -5.5971    0.0000 C   0  0  0  0  0  0  0  0  0  0  0  0
   10.4181   -4.8289    0.0000 C   0  0  0  0  0  0  0  0  0  0  0  0
   10.3963   -3.3274    0.0000 C   0  0  0  0  0  0  0  0  0  0  0  0
    9.0770   -2.5976    0.0000 C   0  0  0  0  0  0  0  0  0  0  0  0
    7.7957   -3.3702    0.0000 C   0  0  0  0  0  0  0  0  0  0  0  0
   11.6827   -2.5563    0.0000 O   0  0  0  0  0  0  0  0  0  0  0  0
    7.8957   -9.3649    0.0000 O   0  0  0  0  0  0  0  0  0  0  0  0
    9.1606   -7.0956    0.0000 O   0  0  0  0  0  0  0  0  0  0  0  0
    9.2061  -10.0949    0.0000 C   0  0  0  0  0  0  0  0  0  0  0  0
   -2.5173   -8.0327    0.0000 N   0  0  0  0  0  0  0  0  0  0  0  0
    5.2755   -7.9046    0.0000 N   0  0  0  0  0  0  0  0  0  0  0  0
 11 12  1  0  0  0  0
 12 13  1  0  0  0  0
 13 14  1  0  0  0  0
 10 15  2  0  0  0  0
 12 16  2  0  0  0  0
 11 17  1  0  0  0  0
 17 18  1  0  0  0  0
 18 19  2  0  0  0  0
  3 20  1  0  0  0  0
 20 21  1  0  0  0  0
  2 22  1  0  0  0  0
 22 23  1  0  0  0  0
  1 24  1  0  0  0  0
 24 25  1  0  0  0  0
 26 27  1  0  0  0  0
  1  2  2  0  0  0  0
 26 28  1  1  0  0  0
  2  3  1  0  0  0  0
 28 29  1  0  0  0  0
  3  4  2  0  0  0  0
 29 30  2  0  0  0  0
  4  5  1  0  0  0  0
 30 31  1  0  0  0  0
  5  6  2  0  0  0  0
 31 32  2  0  0  0  0
  6  1  1  0  0  0  0
 32 33  1  0  0  0  0
  5  7  1  0  0  0  0
 33 34  2  0  0  0  0
 34 29  1  0  0  0  0
 32 35  1  0  0  0  0
  7  8  2  0  0  0  0
 27 36  1  0  0  0  0
 27 37  2  0  0  0  0
  9 10  1  0  0  0  0
 36 38  1  0  0  0  0
  9 14  1  0  0  0  0
 10 11  1  0  0  0  0
  7 39  1  0  0  0  0
  9 39  1  1  0  0  0
 18 40  1  0  0  0  0
 40 26  1  0  0  0  0
M  END
> <Value>
4.3487219860018556

> <Error>
0.0

> <Relation>
=

> <SourceURI>
mol:CHEMBL395121

$$$$

Generated by Molecular Materials Informatics

 37 38  0  0  0  0  0  0  0  0999 V2000
    4.9411  -13.1827    0.0000 N   0  0  0  0  0  0  0  0  0  0  0  0
    6.2395  -12.4327    0.0000 C   0  0  0  0  0  0  0  0  0  0  0  0
    7.5378  -13.1827    0.0000 C   0  0  0  0  0  0  0  0  0  0  0  0
   -6.7438  -10.9611    0.0000 C   0  0  0  0  0  0  0  0  0  0  0  0
   -6.7460  -12.4660    0.0000 C   0  0  0  0  0  0  0  0  0  0  0  0
   -5.4498  -13.2167    0.0000 C   0  0  0  0  0  0  0  0  0  0  0  0
   -4.1418  -12.4649    0.0000 C   0  0  0  0  0  0  0  0  0  0  0  0
   -4.1476  -10.9540    0.0000 C   0  0  0  0  0  0  0  0  0  0  0  0
   -5.4534  -10.2107    0.0000 C   0  0  0  0  0  0  0  0  0  0  0  0
   -2.8522  -10.1976    0.0000 C   0  0  0  0  0  0  0  0  0  0  0  0
   -1.5496  -10.9411    0.0000 N   0  0  0  0  0  0  0  0  0  0  0  0
   -2.8598   -8.6976    0.0000 O   0  0  0  0  0  0  0  0  0  0  0  0
   -0.2542  -10.1845    0.0000 C   0  0  0  0  0  0  0  0  0  0  0  0
    1.0480  -10.9360    0.0000 C   0  0  0  0  0  0  0  0  0  0  0  0
    2.3395  -10.1858    0.0000 N   0  0  0  0  0  0  0  0  0  0  0  0
    2.3398   -8.6851    0.0000 C   0  0  0  0  0  0  0  0  0  0  0  0
    1.0375   -7.9376    0.0000 C   0  0  0  0  0  0  0  0  0  0  0  0
   -0.2654   -8.6907    0.0000 C   0  0  0  0  0  0  0  0  0  0  0  0
    1.0502  -12.4360    0.0000 O   0  0  0  0  0  0  0  0  0  0  0  0
    3.6380   -7.9338    0.0000 O   0  0  0  0  0  0  0  0  0  0  0  0
    3.6395  -10.9343    0.0000 C   0  0  0  0  0  0  0  0  0  0  0  0
    3.6413  -12.4343    0.0000 C   0  0  0  0  0  0  0  0  0  0  0  0
    2.3431  -13.1858    0.0000 O   0  0  0  0  0  0  0  0  0  0  0  0
   -8.0434  -10.2123    0.0000 O   0  0  0  0  0  0  0  0  0  0  0  0
   -8.0445   -8.7123    0.0000 C   0  0  0  0  0  0  0  0  0  0  0  0
   -8.0462  -13.2141    0.0000 O   0  0  0  0  0  0  0  0  0  0  0  0
   -9.3441  -12.4621    0.0000 C   0  0  0  0  0  0  0  0  0  0  0  0
   -5.4522  -14.7167    0.0000 O   0  0  0  0  0  0  0  0  0  0  0  0
   -6.7525  -15.4645    0.0000 C   0  0  0  0  0  0  0  0  0  0  0  0
    8.8371  -12.4331    0.0000 O   0  0  0  0  0  0  0  0  0  0  0  0
    7.5376  -14.6827    0.0000 O   0  0  0  0  0  0  0  0  0  0  0  0
   10.1360  -13.1834    0.0000 C   0  0  0  0  0  0  0  0  0  0  0  0
    6.2395  -10.9327    0.0000 C   0  0  0  0  0  0  0  0  0  0  0  0
    7.5384  -10.1827    0.0000 C   0  0  0  0  0  0  0  0  0  0  0  0
    7.5384   -8.6827    0.0000 O   0  0  0  0  0  0  0  0  0  0  0  0
    8.8376  -10.9327    0.0000 O   0  0  0  0  0  0  0  0  0  0  0  0
   10.1365  -10.1827    0.0000 C   0  0  0  0  0  0  0  0  0  0  0  0
  2  3  1  0  0  0  0
 14 19  2  0  0  0  0
  8 10  1  0  0  0  0
 16 20  2  0  0  0  0
  5  6  1  0  0  0  0
 15 21  1  0  0  0  0
 10 11  1  0  0  0  0
 21 22  1  0  0  0  0
 22  1  1  0  0  0  0
 22 23  2  0  0  0  0
 10 12  2  0  0  0  0
  4 24  1  0  0  0  0
  6  7  2  0  0  0  0
 24 25  1  0  0  0  0
 13 11  1  1  0  0  0
  5 26  1  0  0  0  0
 13 14  1  0  0  0  0
 26 27  1  0  0  0  0
  1  2  1  0  0  0  0
  6 28  1  0  0  0  0
  7  8  1  0  0  0  0
 28 29  1  0  0  0  0
  4  5  2  0  0  0  0
  3 30  1  0  0  0  0
  8  9  2  0  0  0  0
  3 31  2  0  0  0  0
  9  4  1  0  0  0  0
 30 32  1  0  0  0  0
 13 18  1  0  0  0  0
  2 33  1  1  0  0  0
 14 15  1  0  0  0  0
 33 34  1  0  0  0  0
 15 16  1  0  0  0  0
 34 35  2  0  0  0  0
 16 17  1  0  0  0  0
 34 36  1  0  0  0  0
 17 18  1  0  0  0  0
 36 37  1  0  0  0  0
M  END
> <Value>
4.663540266151471

> <Relation>
=

> <SourceURI>
mol:CHEMBL430010

$$$$

Generated by Molecular Materials Informatics

 42 43  0  0  0  0  0  0  0  0999 V2000
   31.5281  -12.1734    0.0000 C   0  0  0  0  0  0  0  0  0  0  0  0
   30.2470  -11.3947    0.0000 C   0  0  0  0  0  0  0  0  0  0  0  0
   32.8439  -11.4534    0.0000 O   0  0  0  0  0  0  0  0  0  0  0  0
   31.4935  -13.6725    0.0000 O   0  0  0  0  0  0  0  0  0  0  0  0
   30.1775  -14.3923    0.0000 C   0  0  0  0  0  0  0  0  0  0  0  0
   28.9510  -12.1457    0.0000 N   0  0  0  0  0  0  0  0  0  0  0  0
   17.2668   -9.9243    0.0000 C   0  0  0  0  0  0  0  0  0  0  0  0
   17.2646  -11.4290    0.0000 C   0  0  0  0  0  0  0  0  0  0  0  0
   18.5606  -12.1797    0.0000 C   0  0  0  0  0  0  0  0  0  0  0  0
   19.8686  -11.4281    0.0000 C   0  0  0  0  0  0  0  0  0  0  0  0
   19.8628   -9.9172    0.0000 C   0  0  0  0  0  0  0  0  0  0  0  0
   18.5572   -9.1739    0.0000 C   0  0  0  0  0  0  0  0  0  0  0  0
   21.1583   -9.1608    0.0000 C   0  0  0  0  0  0  0  0  0  0  0  0
   22.4608   -9.9043    0.0000 N   0  0  0  0  0  0  0  0  0  0  0  0
   21.1506   -7.6608    0.0000 O   0  0  0  0  0  0  0  0  0  0  0  0
   23.7561   -9.1477    0.0000 C   0  0  0  0  0  0  0  0  0  0  0  0
   25.0583   -9.8992    0.0000 C   0  0  0  0  0  0  0  0  0  0  0  0
   26.3495   -9.1490    0.0000 N   0  0  0  0  0  0  0  0  0  0  0  0
   26.3499   -7.6485    0.0000 C   0  0  0  0  0  0  0  0  0  0  0  0
   25.0475   -6.9008    0.0000 C   0  0  0  0  0  0  0  0  0  0  0  0
   23.7448   -7.6541    0.0000 C   0  0  0  0  0  0  0  0  0  0  0  0
   25.0604  -11.3990    0.0000 O   0  0  0  0  0  0  0  0  0  0  0  0
   27.6481   -6.8970    0.0000 O   0  0  0  0  0  0  0  0  0  0  0  0
   27.6495   -9.8976    0.0000 C   0  0  0  0  0  0  0  0  0  0  0  0
   27.6513  -11.3974    0.0000 C   0  0  0  0  0  0  0  0  0  0  0  0
   26.3532  -12.1488    0.0000 O   0  0  0  0  0  0  0  0  0  0  0  0
   15.9672   -9.1756    0.0000 O   0  0  0  0  0  0  0  0  0  0  0  0
   15.9661   -7.6756    0.0000 C   0  0  0  0  0  0  0  0  0  0  0  0
   15.9644  -12.1772    0.0000 O   0  0  0  0  0  0  0  0  0  0  0  0
   14.6664  -11.4252    0.0000 C   0  0  0  0  0  0  0  0  0  0  0  0
   18.5583  -13.6797    0.0000 O   0  0  0  0  0  0  0  0  0  0  0  0
   17.2579  -14.4276    0.0000 C   0  0  0  0  0  0  0  0  0  0  0  0
   30.2626   -9.8947    0.0000 C   0  0  0  0  0  0  0  0  0  0  0  0
   31.5694   -9.1583    0.0000 C   0  0  0  0  0  0  0  0  0  0  0  0
   31.5850   -7.6587    0.0000 C   0  0  0  0  0  0  0  0  0  0  0  0
   32.8917   -6.9221    0.0000 N   0  0  0  0  0  0  0  0  0  0  0  0
   32.9072   -5.4223    0.0000 C   0  0  0  0  0  0  0  0  0  0  0  0
   34.2141   -4.6859    0.0000 N   0  0  0  0  0  0  0  0  0  0  0  0
   31.6161   -4.6588    0.0000 N   0  0  0  0  0  0  0  0  0  0  0  0
   35.5052   -5.4494    0.0000 N   0  3  0  0  0  0  0  0  0  0  0  0
   36.8183   -4.7187    0.0000 O   0  0  0  0  0  0  0  0  0  0  0  0
   35.4959   -6.9548    0.0000 O   0  5  0  0  0  0  0  0  0  0  0  0
 20 21  1  0  0  0  0
  6  2  1  0  0  0  0
 17 22  2  0  0  0  0
 11 12  2  0  0  0  0
 19 23  2  0  0  0  0
 12  7  1  0  0  0  0
 18 24  1  0  0  0  0
  1  3  2  0  0  0  0
 24 25  1  0  0  0  0
 25  6  1  0  0  0  0
 11 13  1  0  0  0  0
 25 26  2  0  0  0  0
  1  4  1  0  0  0  0
  7 27  1  0  0  0  0
 13 14  1  0  0  0  0
 27 28  1  0  0  0  0
  7  8  2  0  0  0  0
  8 29  1  0  0  0  0
 13 15  2  0  0  0  0
 29 30  1  0  0  0  0
  9 31  1  0  0  0  0
 16 14  1  1  0  0  0
 31 32  1  0  0  0  0
 16 17  1  0  0  0  0
  2 33  1  1  0  0  0
  8  9  1  0  0  0  0
 33 34  1  0  0  0  0
  4  5  1  0  0  0  0
 34 35  1  0  0  0  0
  9 10  2  0  0  0  0
 35 36  1  0  0  0  0
  1  2  1  0  0  0  0
 36 37  1  0  0  0  0
 10 11  1  0  0  0  0
 37 38  1  0  0  0  0
 16 21  1  0  0  0  0
 37 39  2  0  0  0  0
 17 18  1  0  0  0  0
 38 40  1  0  0  0  0
 18 19  1  0  0  0  0
 19 20  1  0  0  0  0
 40 41  2  0  0  0  0
 40 42  1  0  0  0  0
M  CHG  2  40   1  42  -1
M  END
> <Value>
4.376750709602099

> <Relation>
=

> <SourceURI>
mol:CHEMBL246780

$$$$

Generated by Molecular Materials Informatics

 36 37  0  0  0  0  0  0  0  0999 V2000
   -4.1364   -3.3815    0.0000 C   0  0  0  0  0  0  0  0  0  0  0  0
   -4.1175   -4.8801    0.0000 C   0  0  0  0  0  0  0  0  0  0  0  0
   -2.8047   -5.6141    0.0000 C   0  0  0  0  0  0  0  0  0  0  0  0
   -1.5089   -4.8374    0.0000 C   0  0  0  0  0  0  0  0  0  0  0  0
   -1.5389   -3.3302    0.0000 C   0  0  0  0  0  0  0  0  0  0  0  0
   -2.8536   -2.6068    0.0000 C   0  0  0  0  0  0  0  0  0  0  0  0
   -0.2608   -2.5564    0.0000 C   0  0  0  0  0  0  0  0  0  0  0  0
   -0.2914   -1.0567    0.0000 O   0  0  0  0  0  0  0  0  0  0  0  0
    2.3412   -2.5008    0.0000 C   0  0  0  0  0  0  0  0  0  0  0  0
    3.6573   -3.2322    0.0000 C   0  0  0  0  0  0  0  0  0  0  0  0
    4.9372   -2.4679    0.0000 N   0  0  0  0  0  0  0  0  0  0  0  0
    4.9109   -0.9674    0.0000 C   0  0  0  0  0  0  0  0  0  0  0  0
    3.6024   -0.2358    0.0000 C   0  0  0  0  0  0  0  0  0  0  0  0
    2.3128   -1.0127    0.0000 C   0  0  0  0  0  0  0  0  0  0  0  0
    3.6806   -4.7316    0.0000 O   0  0  0  0  0  0  0  0  0  0  0  0
    6.2010   -0.1929    0.0000 O   0  0  0  0  0  0  0  0  0  0  0  0
    6.2492   -3.1931    0.0000 C   0  0  0  0  0  0  0  0  0  0  0  0
    7.5320   -2.4188    0.0000 C   0  0  0  0  0  0  0  0  0  0  0  0
    7.5100   -0.9194    0.0000 O   0  0  0  0  0  0  0  0  0  0  0  0
   -2.7756   -7.1136    0.0000 O   0  0  0  0  0  0  0  0  0  0  0  0
   -4.0661   -7.8798    0.0000 C   0  0  0  0  0  0  0  0  0  0  0  0
   -5.4011   -5.6528    0.0000 O   0  0  0  0  0  0  0  0  0  0  0  0
   -6.7123   -4.9187    0.0000 C   0  0  0  0  0  0  0  0  0  0  0  0
   -5.4489   -2.6493    0.0000 O   0  0  0  0  0  0  0  0  0  0  0  0
   -5.4713   -1.1498    0.0000 C   0  0  0  0  0  0  0  0  0  0  0  0
    8.8439   -3.1517    0.0000 N   0  0  0  0  0  0  0  0  0  0  0  0
   10.1340   -2.3850    0.0000 C   0  0  0  0  0  0  0  0  0  0  0  0
   11.4385   -3.1102    0.0000 C   0  0  0  0  0  0  0  0  0  0  0  0
   12.7290   -2.3359    0.0000 O   0  0  0  0  0  0  0  0  0  0  0  0
   11.4681   -4.6098    0.0000 O   0  0  0  0  0  0  0  0  0  0  0  0
   10.1779   -5.3841    0.0000 C   0  0  0  0  0  0  0  0  0  0  0  0
   10.1124   -0.8856    0.0000 C   0  0  0  0  0  0  0  0  0  0  0  0
   11.3947   -0.1111    0.0000 C   0  0  0  0  0  0  0  0  0  0  0  0
    8.8001   -0.1528    0.0000 C   0  0  0  0  0  0  0  0  0  0  0  0
    8.7705    1.3470    0.0000 C   0  0  0  0  0  0  0  0  0  0  0  0
    1.0562   -3.2744    0.0000 N   0  0  0  0  0  0  0  0  0  0  0  0
 11 17  1  0  0  0  0
  7  8  2  0  0  0  0
 17 18  1  0  0  0  0
  4  5  1  0  0  0  0
 18 19  2  0  0  0  0
  3 20  1  0  0  0  0
  9 10  1  0  0  0  0
 20 21  1  0  0  0  0
  2  3  1  0  0  0  0
  2 22  1  0  0  0  0
  5  6  2  0  0  0  0
 22 23  1  0  0  0  0
  6  1  1  0  0  0  0
  1 24  1  0  0  0  0
  1  2  2  0  0  0  0
 24 25  1  0  0  0  0
  5  7  1  0  0  0  0
 18 26  1  0  0  0  0
  9 14  1  0  0  0  0
 27 26  1  1  0  0  0
 10 11  1  0  0  0  0
 27 28  1  0  0  0  0
 11 12  1  0  0  0  0
 28 29  2  0  0  0  0
 12 13  1  0  0  0  0
 28 30  1  0  0  0  0
 13 14  1  0  0  0  0
 30 31  1  0  0  0  0
  3  4  2  0  0  0  0
 27 32  1  0  0  0  0
 10 15  2  0  0  0  0
 32 33  1  6  0  0  0
 32 34  1  0  0  0  0
 12 16  2  0  0  0  0
 34 35  1  0  0  0  0
  9 36  1  1  0  0  0
  7 36  1  0  0  0  0
M  END
> <Value>
4.30715308072277

> <Error>
0.0

> <Relation>
=

> <SourceURI>
mol:CHEMBL247188

$$$$

Generated by Molecular Materials Informatics

 32 33  0  0  0  0  0  0  0  0999 V2000
   -6.7923   -4.9482    0.0000 C   0  0  0  0  0  0  0  0  0  0  0  0
   -6.7699   -6.4524    0.0000 C   0  0  0  0  0  0  0  0  0  0  0  0
   -5.4583   -7.1819    0.0000 C   0  0  0  0  0  0  0  0  0  0  0  0
   -4.1679   -6.4092    0.0000 C   0  0  0  0  0  0  0  0  0  0  0  0
   -4.1979   -4.8993    0.0000 C   0  0  0  0  0  0  0  0  0  0  0  0
   -5.5105   -4.1768    0.0000 C   0  0  0  0  0  0  0  0  0  0  0  0
   -2.9141   -4.1235    0.0000 C   0  0  0  0  0  0  0  0  0  0  0  0
   -1.6003   -4.8472    0.0000 N   0  0  0  0  0  0  0  0  0  0  0  0
   -2.9443   -2.6237    0.0000 O   0  0  0  0  0  0  0  0  0  0  0  0
   -0.3167   -4.0713    0.0000 C   0  0  0  0  0  0  0  0  0  0  0  0
    1.0021   -4.8041    0.0000 C   0  0  0  0  0  0  0  0  0  0  0  0
    2.2821   -4.0346    0.0000 N   0  0  0  0  0  0  0  0  0  0  0  0
    2.2597   -2.5341    0.0000 C   0  0  0  0  0  0  0  0  0  0  0  0
    0.9461   -1.8062    0.0000 C   0  0  0  0  0  0  0  0  0  0  0  0
   -0.3452   -2.5790    0.0000 C   0  0  0  0  0  0  0  0  0  0  0  0
    1.0275   -6.3039    0.0000 O   0  0  0  0  0  0  0  0  0  0  0  0
    3.5462   -1.7630    0.0000 O   0  0  0  0  0  0  0  0  0  0  0  0
    3.5932   -4.7633    0.0000 C   0  0  0  0  0  0  0  0  0  0  0  0
    4.8797   -3.9922    0.0000 C   0  0  0  0  0  0  0  0  0  0  0  0
    4.8553   -2.4924    0.0000 O   0  0  0  0  0  0  0  0  0  0  0  0
   -5.4341   -8.6817    0.0000 O   0  0  0  0  0  0  0  0  0  0  0  0
   -6.7208   -9.4524    0.0000 C   0  0  0  0  0  0  0  0  0  0  0  0
   -8.0572   -7.2224    0.0000 O   0  0  0  0  0  0  0  0  0  0  0  0
   -9.3677   -6.4928    0.0000 C   0  0  0  0  0  0  0  0  0  0  0  0
   -8.1036   -4.2199    0.0000 O   0  0  0  0  0  0  0  0  0  0  0  0
   -8.1285   -2.7201    0.0000 C   0  0  0  0  0  0  0  0  0  0  0  0
    6.1908   -4.7210    0.0000 N   0  0  0  0  0  0  0  0  0  0  0  0
    7.4775   -3.9499    0.0000 C   0  0  0  0  0  0  0  0  0  0  0  0
    8.7886   -4.6786    0.0000 C   0  0  0  0  0  0  0  0  0  0  0  0
   10.0751   -3.9075    0.0000 O   0  0  0  0  0  0  0  0  0  0  0  0
    8.8130   -6.1784    0.0000 O   0  0  0  0  0  0  0  0  0  0  0  0
    7.5264   -6.9495    0.0000 C   0  0  0  0  0  0  0  0  0  0  0  0
  3  4  2  0  0  0  0
 11 16  2  0  0  0  0
  7  8  1  0  0  0  0
 13 17  2  0  0  0  0
 12 18  1  0  0  0  0
  7  9  2  0  0  0  0
 18 19  1  0  0  0  0
  4  5  1  0  0  0  0
 19 20  2  0  0  0  0
 10  8  1  1  0  0  0
  3 21  1  0  0  0  0
 10 11  1  0  0  0  0
 21 22  1  0  0  0  0
  2  3  1  0  0  0  0
  2 23  1  0  0  0  0
  5  6  2  0  0  0  0
 23 24  1  0  0  0  0
  6  1  1  0  0  0  0
  1 25  1  0  0  0  0
  1  2  2  0  0  0  0
 25 26  1  0  0  0  0
  5  7  1  0  0  0  0
 19 27  1  0  0  0  0
 10 15  1  0  0  0  0
 27 28  1  0  0  0  0
 11 12  1  0  0  0  0
 28 29  1  0  0  0  0
 12 13  1  0  0  0  0
 29 30  2  0  0  0  0
 13 14  1  0  0  0  0
 29 31  1  0  0  0  0
 14 15  1  0  0  0  0
 31 32  1  0  0  0  0
M  END
> <Value>
4.2564902352715706

> <Error>
0.0

> <Relation>
=

> <SourceURI>
mol:CHEMBL246179

$$$$

Generated by Molecular Materials Informatics

 38 40  0  0  0  0  0  0  0  0999 V2000
   -7.1821  -15.0616    0.0000 C   0  0  0  0  0  0  0  0  0  0  0  0
   -7.1634  -16.5679    0.0000 C   0  0  0  0  0  0  0  0  0  0  0  0
   -5.8492  -17.2983    0.0000 C   0  0  0  0  0  0  0  0  0  0  0  0
   -4.5599  -16.5177    0.0000 C   0  0  0  0  0  0  0  0  0  0  0  0
   -4.5899  -15.0105    0.0000 C   0  0  0  0  0  0  0  0  0  0  0  0
   -5.9056  -14.2907    0.0000 C   0  0  0  0  0  0  0  0  0  0  0  0
   -3.3105  -14.2403    0.0000 C   0  0  0  0  0  0  0  0  0  0  0  0
   -3.3408  -12.7408    0.0000 O   0  0  0  0  0  0  0  0  0  0  0  0
   -0.7134  -14.1874    0.0000 C   0  0  0  0  0  0  0  0  0  0  0  0
    0.6112  -14.9152    0.0000 C   0  0  0  0  0  0  0  0  0  0  0  0
    1.8926  -14.1546    0.0000 N   0  0  0  0  0  0  0  0  0  0  0  0
    1.8664  -12.6537    0.0000 C   0  0  0  0  0  0  0  0  0  0  0  0
    0.5492  -11.9187    0.0000 C   0  0  0  0  0  0  0  0  0  0  0  0
   -0.7416  -12.6990    0.0000 C   0  0  0  0  0  0  0  0  0  0  0  0
    0.6346  -16.4148    0.0000 O   0  0  0  0  0  0  0  0  0  0  0  0
    3.1577  -11.8759    0.0000 O   0  0  0  0  0  0  0  0  0  0  0  0
    3.1982  -14.8763    0.0000 C   0  0  0  0  0  0  0  0  0  0  0  0
    4.4897  -14.1134    0.0000 C   0  0  0  0  0  0  0  0  0  0  0  0
    4.4604  -12.6136    0.0000 O   0  0  0  0  0  0  0  0  0  0  0  0
   -5.8279  -18.7979    0.0000 O   0  0  0  0  0  0  0  0  0  0  0  0
   -7.1121  -19.5679    0.0000 C   0  0  0  0  0  0  0  0  0  0  0  0
   -8.4481  -17.3370    0.0000 O   0  0  0  0  0  0  0  0  0  0  0  0
   -9.7607  -16.6063    0.0000 C   0  0  0  0  0  0  0  0  0  0  0  0
   -8.4957  -14.3330    0.0000 O   0  0  0  0  0  0  0  0  0  0  0  0
   -8.5256  -12.8332    0.0000 C   0  0  0  0  0  0  0  0  0  0  0  0
    7.0917  -14.0661    0.0000 C   0  0  0  0  0  0  0  0  0  0  0  0
    8.4028  -14.7928    0.0000 C   0  0  0  0  0  0  0  0  0  0  0  0
    7.0690  -12.5665    0.0000 C   0  0  0  0  0  0  0  0  0  0  0  0
    8.3577  -11.7930    0.0000 C   0  0  0  0  0  0  0  0  0  0  0  0
    8.4255  -16.2927    0.0000 O   0  0  0  0  0  0  0  0  0  0  0  0
    9.6915  -14.0270    0.0000 O   0  0  0  0  0  0  0  0  0  0  0  0
    9.7368  -17.0268    0.0000 C   0  0  0  0  0  0  0  0  0  0  0  0
    9.7339  -12.3697    0.0000 C   0  0  0  0  0  0  0  0  0  0  0  0
   10.7232  -11.2456    0.0000 N   0  0  0  0  0  0  0  0  0  0  0  0
    8.4873  -10.2896    0.0000 N   0  0  0  0  0  0  0  0  0  0  0  0
    9.9457   -9.9634    0.0000 C   0  0  0  0  0  0  0  0  0  0  0  0
   -1.9967  -14.9641    0.0000 N   0  0  0  0  0  0  0  0  0  0  0  0
    5.8042  -14.8359    0.0000 N   0  0  0  0  0  0  0  0  0  0  0  0
  9 14  1  0  0  0  0
 10 11  1  0  0  0  0
 11 12  1  0  0  0  0
 12 13  1  0  0  0  0
 13 14  1  0  0  0  0
 10 15  2  0  0  0  0
 12 16  2  0  0  0  0
 11 17  1  0  0  0  0
 17 18  1  0  0  0  0
 18 19  2  0  0  0  0
  3 20  1  0  0  0  0
 20 21  1  0  0  0  0
  2 22  1  0  0  0  0
 22 23  1  0  0  0  0
  1 24  1  0  0  0  0
 24 25  1  0  0  0  0
 26 27  1  0  0  0  0
  1  2  2  0  0  0  0
 26 28  1  1  0  0  0
  2  3  1  0  0  0  0
 28 29  1  0  0  0  0
  3  4  2  0  0  0  0
 27 30  1  0  0  0  0
  4  5  1  0  0  0  0
 27 31  2  0  0  0  0
  5  6  2  0  0  0  0
 30 32  1  0  0  0  0
 29 33  2  0  0  0  0
  6  1  1  0  0  0  0
  5  7  1  0  0  0  0
 33 34  1  0  0  0  0
 34 36  2  0  0  0  0
 35 29  1  0  0  0  0
  7  8  2  0  0  0  0
 35 36  1  0  0  0  0
  9 10  1  0  0  0  0
  7 37  1  0  0  0  0
  9 37  1  1  0  0  0
 18 38  1  0  0  0  0
 38 26  1  0  0  0  0
M  END
> <Value>
5.2839966563652006

> <Error>
0.0

> <Relation>
=

> <SourceURI>
mol:CHEMBL245397

$$$$

Generated by Molecular Materials Informatics

 36 37  0  0  0  0  0  0  0  0999 V2000
   -6.9407   -0.9156    0.0000 C   0  0  0  0  0  0  0  0  0  0  0  0
   -6.9184   -2.4198    0.0000 C   0  0  0  0  0  0  0  0  0  0  0  0
   -5.6067   -3.1492    0.0000 C   0  0  0  0  0  0  0  0  0  0  0  0
   -4.3164   -2.3765    0.0000 C   0  0  0  0  0  0  0  0  0  0  0  0
   -4.3464   -0.8667    0.0000 C   0  0  0  0  0  0  0  0  0  0  0  0
   -5.6589   -0.1441    0.0000 C   0  0  0  0  0  0  0  0  0  0  0  0
   -3.0626   -0.0909    0.0000 C   0  0  0  0  0  0  0  0  0  0  0  0
   -1.7488   -0.8145    0.0000 N   0  0  0  0  0  0  0  0  0  0  0  0
   -3.0928    1.4089    0.0000 O   0  0  0  0  0  0  0  0  0  0  0  0
   -0.4652   -0.0387    0.0000 C   0  0  0  0  0  0  0  0  0  0  0  0
    0.8536   -0.7714    0.0000 C   0  0  0  0  0  0  0  0  0  0  0  0
    2.1335   -0.0020    0.0000 N   0  0  0  0  0  0  0  0  0  0  0  0
    2.1112    1.4986    0.0000 C   0  0  0  0  0  0  0  0  0  0  0  0
    0.7976    2.2264    0.0000 C   0  0  0  0  0  0  0  0  0  0  0  0
   -0.4937    1.4537    0.0000 C   0  0  0  0  0  0  0  0  0  0  0  0
    0.8790   -2.2712    0.0000 O   0  0  0  0  0  0  0  0  0  0  0  0
    3.3977    2.2696    0.0000 O   0  0  0  0  0  0  0  0  0  0  0  0
    3.4446   -0.7307    0.0000 C   0  0  0  0  0  0  0  0  0  0  0  0
    4.7311    0.0404    0.0000 C   0  0  0  0  0  0  0  0  0  0  0  0
    4.7068    1.5402    0.0000 O   0  0  0  0  0  0  0  0  0  0  0  0
   -5.5826   -4.6490    0.0000 O   0  0  0  0  0  0  0  0  0  0  0  0
   -6.8693   -5.4197    0.0000 C   0  0  0  0  0  0  0  0  0  0  0  0
   -8.2056   -3.1898    0.0000 O   0  0  0  0  0  0  0  0  0  0  0  0
   -9.5162   -2.4601    0.0000 C   0  0  0  0  0  0  0  0  0  0  0  0
   -8.2520   -0.1872    0.0000 O   0  0  0  0  0  0  0  0  0  0  0  0
   -8.2769    1.3126    0.0000 C   0  0  0  0  0  0  0  0  0  0  0  0
    6.0422   -0.6883    0.0000 N   0  0  0  0  0  0  0  0  0  0  0  0
    7.3289    0.0828    0.0000 C   0  0  0  0  0  0  0  0  0  0  0  0
    8.6400   -0.6460    0.0000 C   0  0  0  0  0  0  0  0  0  0  0  0
    7.3044    1.5826    0.0000 C   0  0  0  0  0  0  0  0  0  0  0  0
    8.5911    2.3536    0.0000 C   0  0  0  0  0  0  0  0  0  0  0  0
    8.5666    3.8534    0.0000 S   0  0  0  0  0  0  0  0  0  0  0  0
    9.8533    4.6245    0.0000 C   0  0  0  0  0  0  0  0  0  0  0  0
    9.9265    0.1251    0.0000 O   0  0  0  0  0  0  0  0  0  0  0  0
    8.6644   -2.1458    0.0000 O   0  0  0  0  0  0  0  0  0  0  0  0
    9.9755   -2.8745    0.0000 C   0  0  0  0  0  0  0  0  0  0  0  0
 12 18  1  0  0  0  0
  7  9  2  0  0  0  0
 18 19  1  0  0  0  0
  4  5  1  0  0  0  0
 19 20  2  0  0  0  0
 10  8  1  1  0  0  0
  3 21  1  0  0  0  0
 10 11  1  0  0  0  0
 21 22  1  0  0  0  0
  2  3  1  0  0  0  0
  2 23  1  0  0  0  0
  5  6  2  0  0  0  0
 23 24  1  0  0  0  0
  6  1  1  0  0  0  0
  1 25  1  0  0  0  0
  1  2  2  0  0  0  0
 25 26  1  0  0  0  0
  5  7  1  0  0  0  0
 19 27  1  0  0  0  0
 10 15  1  0  0  0  0
 27 28  1  0  0  0  0
 11 12  1  0  0  0  0
 28 29  1  0  0  0  0
 12 13  1  0  0  0  0
 28 30  1  1  0  0  0
 13 14  1  0  0  0  0
 30 31  1  0  0  0  0
 14 15  1  0  0  0  0
 31 32  1  0  0  0  0
  3  4  2  0  0  0  0
 32 33  1  0  0  0  0
 11 16  2  0  0  0  0
 29 34  2  0  0  0  0
  7  8  1  0  0  0  0
 29 35  1  0  0  0  0
 13 17  2  0  0  0  0
 35 36  1  0  0  0  0
M  END
> <Value>
4.684029654543083

> <Error>
0.0

> <Relation>
=

> <SourceURI>
mol:CHEMBL247391

$$$$

Generated by Molecular Materials Informatics

 35 36  0  0  0  0  0  0  0  0999 V2000
   -4.9996   -0.9521    0.0000 C   0  0  0  0  0  0  0  0  0  0  0  0
   -4.9873   -2.4495    0.0000 C   0  0  0  0  0  0  0  0  0  0  0  0
   -3.6635   -3.1752    0.0000 C   0  0  0  0  0  0  0  0  0  0  0  0
   -2.3861   -2.4029    0.0000 C   0  0  0  0  0  0  0  0  0  0  0  0
   -2.4167   -0.9031    0.0000 C   0  0  0  0  0  0  0  0  0  0  0  0
   -3.7242   -0.1683    0.0000 C   0  0  0  0  0  0  0  0  0  0  0  0
   -1.1251   -0.1212    0.0000 C   0  0  0  0  0  0  0  0  0  0  0  0
   -1.1491    1.3799    0.0000 O   0  0  0  0  0  0  0  0  0  0  0  0
    1.4676   -0.0675    0.0000 C   0  0  0  0  0  0  0  0  0  0  0  0
    2.7840   -0.7935    0.0000 C   0  0  0  0  0  0  0  0  0  0  0  0
    4.0589   -0.0305    0.0000 N   0  0  0  0  0  0  0  0  0  0  0  0
    4.0367    1.4658    0.0000 C   0  0  0  0  0  0  0  0  0  0  0  0
    2.7179    2.2031    0.0000 C   0  0  0  0  0  0  0  0  0  0  0  0
    1.4294    1.4197    0.0000 C   0  0  0  0  0  0  0  0  0  0  0  0
    2.8073   -2.2951    0.0000 O   0  0  0  0  0  0  0  0  0  0  0  0
    5.3267    2.2444    0.0000 O   0  0  0  0  0  0  0  0  0  0  0  0
    5.3665   -0.7539    0.0000 C   0  0  0  0  0  0  0  0  0  0  0  0
    6.6566    0.0070    0.0000 C   0  0  0  0  0  0  0  0  0  0  0  0
    6.6275    1.5088    0.0000 O   0  0  0  0  0  0  0  0  0  0  0  0
   -3.6530   -4.6770    0.0000 O   0  0  0  0  0  0  0  0  0  0  0  0
   -4.9266   -5.4468    0.0000 C   0  0  0  0  0  0  0  0  0  0  0  0
   -6.2620   -3.2071    0.0000 O   0  0  0  0  0  0  0  0  0  0  0  0
   -7.5814   -2.4916    0.0000 C   0  0  0  0  0  0  0  0  0  0  0  0
   -6.3140   -0.2124    0.0000 O   0  0  0  0  0  0  0  0  0  0  0  0
   -6.3443    1.2819    0.0000 C   0  0  0  0  0  0  0  0  0  0  0  0
    9.2607    0.0517    0.0000 C   0  0  0  0  0  0  0  0  0  0  0  0
   10.5657   -0.6790    0.0000 C   0  0  0  0  0  0  0  0  0  0  0  0
    9.2276    1.5460    0.0000 C   0  0  0  0  0  0  0  0  0  0  0  0
   10.5836   -2.1736    0.0000 O   0  0  0  0  0  0  0  0  0  0  0  0
   11.8495    0.0957    0.0000 O   0  0  0  0  0  0  0  0  0  0  0  0
   11.8999   -2.9082    0.0000 C   0  0  0  0  0  0  0  0  0  0  0  0
   10.5230    2.3251    0.0000 O   0  0  0  0  0  0  0  0  0  0  0  0
    7.9187    2.2845    0.0000 C   0  0  0  0  0  0  0  0  0  0  0  0
    7.9715   -0.7150    0.0000 N   0  0  0  0  0  0  0  0  0  0  0  0
    0.1867   -0.8482    0.0000 N   0  0  0  0  0  0  0  0  0  0  0  0
  2  3  1  0  0  0  0
  3  4  2  0  0  0  0
  4  5  1  0  0  0  0
  5  6  2  0  0  0  0
  6  1  1  0  0  0  0
  5  7  1  0  0  0  0
  7  8  2  0  0  0  0
  9 10  1  0  0  0  0
  9 14  1  0  0  0  0
 10 11  1  0  0  0  0
 11 12  1  0  0  0  0
 12 13  1  0  0  0  0
 13 14  1  0  0  0  0
 10 15  2  0  0  0  0
 12 16  2  0  0  0  0
 11 17  1  0  0  0  0
 17 18  1  0  0  0  0
 18 19  2  0  0  0  0
  3 20  1  0  0  0  0
 20 21  1  0  0  0  0
  2 22  1  0  0  0  0
 22 23  1  0  0  0  0
  1 24  1  0  0  0  0
 24 25  1  0  0  0  0
 26 27  1  0  0  0  0
 26 28  1  0  0  0  0
 27 29  1  0  0  0  0
 27 30  2  0  0  0  0
 29 31  1  0  0  0  0
 28 32  1  1  0  0  0
 28 33  1  0  0  0  0
  1  2  2  0  0  0  0
 18 34  1  0  0  0  0
 26 34  1  1  0  0  0
  7 35  1  0  0  0  0
  9 35  1  1  0  0  0
M  END
> <Value>
4.284832642151542

> <Error>
0.0

> <Relation>
=

> <SourceURI>
mol:CHEMBL395354

$$$$

Generated by Molecular Materials Informatics

 28 29  0  0  0  0  0  0  0  0999 V2000
    7.5484   -6.0150    0.0000 C   0  0  0  0  0  0  0  0  0  0  0  0
    7.5619   -7.5166    0.0000 C   0  0  0  0  0  0  0  0  0  0  0  0
    8.8771   -8.2459    0.0000 C   0  0  0  0  0  0  0  0  0  0  0  0
   10.1620   -7.4704    0.0000 C   0  0  0  0  0  0  0  0  0  0  0  0
   10.1316   -5.9673    0.0000 C   0  0  0  0  0  0  0  0  0  0  0  0
    8.8220   -5.2349    0.0000 C   0  0  0  0  0  0  0  0  0  0  0  0
   11.4206   -5.1886    0.0000 C   0  0  0  0  0  0  0  0  0  0  0  0
   11.3897   -3.6896    0.0000 O   0  0  0  0  0  0  0  0  0  0  0  0
   14.0148   -5.1389    0.0000 C   0  0  0  0  0  0  0  0  0  0  0  0
   15.3382   -5.8685    0.0000 C   0  0  0  0  0  0  0  0  0  0  0  0
   16.6110   -5.1043    0.0000 N   0  0  0  0  0  0  0  0  0  0  0  0
   16.5863   -3.6036    0.0000 C   0  0  0  0  0  0  0  0  0  0  0  0
   15.2744   -2.8741    0.0000 C   0  0  0  0  0  0  0  0  0  0  0  0
   13.9795   -3.6496    0.0000 C   0  0  0  0  0  0  0  0  0  0  0  0
   15.3588   -7.3677    0.0000 O   0  0  0  0  0  0  0  0  0  0  0  0
   17.8748   -2.8319    0.0000 O   0  0  0  0  0  0  0  0  0  0  0  0
   17.9210   -5.8320    0.0000 C   0  0  0  0  0  0  0  0  0  0  0  0
   19.2091   -5.0641    0.0000 C   0  0  0  0  0  0  0  0  0  0  0  0
   19.1796   -3.5650    0.0000 O   0  0  0  0  0  0  0  0  0  0  0  0
    8.8944   -9.7450    0.0000 O   0  0  0  0  0  0  0  0  0  0  0  0
    7.6172  -10.5160    0.0000 C   0  0  0  0  0  0  0  0  0  0  0  0
    6.2838   -8.2819    0.0000 O   0  0  0  0  0  0  0  0  0  0  0  0
    4.9713   -7.5596    0.0000 C   0  0  0  0  0  0  0  0  0  0  0  0
    6.2343   -5.2842    0.0000 O   0  0  0  0  0  0  0  0  0  0  0  0
    6.2041   -3.7851    0.0000 C   0  0  0  0  0  0  0  0  0  0  0  0
   20.5205   -5.7923    0.0000 O   0  0  0  0  0  0  0  0  0  0  0  0
   20.5456   -7.2918    0.0000 C   0  0  0  0  0  0  0  0  0  0  0  0
   12.7322   -5.9178    0.0000 N   0  0  0  0  0  0  0  0  0  0  0  0
  3  4  2  0  0  0  0
  4  5  1  0  0  0  0
  5  6  2  0  0  0  0
  6  1  1  0  0  0  0
  5  7  1  0  0  0  0
  7  8  2  0  0  0  0
  9 10  1  0  0  0  0
  9 14  1  0  0  0  0
 10 11  1  0  0  0  0
 11 12  1  0  0  0  0
 12 13  1  0  0  0  0
 13 14  1  0  0  0  0
 10 15  2  0  0  0  0
 12 16  2  0  0  0  0
 11 17  1  0  0  0  0
 17 18  1  0  0  0  0
 18 19  2  0  0  0  0
  3 20  1  0  0  0  0
 20 21  1  0  0  0  0
  2 22  1  0  0  0  0
 22 23  1  0  0  0  0
  1 24  1  0  0  0  0
 24 25  1  0  0  0  0
 18 26  1  0  0  0  0
  1  2  2  0  0  0  0
 26 27  1  0  0  0  0
  2  3  1  0  0  0  0
  7 28  1  0  0  0  0
  9 28  1  1  0  0  0
M  END
> <Value>
4.1979107421182675

> <Error>
0.0

> <Relation>
=

> <SourceURI>
mol:CHEMBL245917

$$$$

Generated by Molecular Materials Informatics

 34 35  0  0  0  0  0  0  0  0999 V2000
   18.3837   -6.9905    0.0000 N   0  0  0  0  0  0  0  0  0  0  0  0
   19.6821   -6.2406    0.0000 C   0  0  0  0  0  0  0  0  0  0  0  0
    6.6991   -4.7690    0.0000 C   0  0  0  0  0  0  0  0  0  0  0  0
    6.6967   -6.2735    0.0000 C   0  0  0  0  0  0  0  0  0  0  0  0
    7.9931   -7.0243    0.0000 C   0  0  0  0  0  0  0  0  0  0  0  0
    9.3010   -6.2728    0.0000 C   0  0  0  0  0  0  0  0  0  0  0  0
    9.2951   -4.7617    0.0000 C   0  0  0  0  0  0  0  0  0  0  0  0
    7.9895   -4.0184    0.0000 C   0  0  0  0  0  0  0  0  0  0  0  0
   10.5904   -4.0051    0.0000 C   0  0  0  0  0  0  0  0  0  0  0  0
   11.8932   -4.7488    0.0000 N   0  0  0  0  0  0  0  0  0  0  0  0
   10.5830   -2.5053    0.0000 O   0  0  0  0  0  0  0  0  0  0  0  0
   13.1883   -3.9924    0.0000 C   0  0  0  0  0  0  0  0  0  0  0  0
   14.4905   -4.7437    0.0000 C   0  0  0  0  0  0  0  0  0  0  0  0
   15.7822   -3.9937    0.0000 N   0  0  0  0  0  0  0  0  0  0  0  0
   15.7824   -2.4931    0.0000 C   0  0  0  0  0  0  0  0  0  0  0  0
   14.4800   -1.7454    0.0000 C   0  0  0  0  0  0  0  0  0  0  0  0
   13.1772   -2.4984    0.0000 C   0  0  0  0  0  0  0  0  0  0  0  0
   14.4927   -6.2435    0.0000 O   0  0  0  0  0  0  0  0  0  0  0  0
   17.0806   -1.7414    0.0000 O   0  0  0  0  0  0  0  0  0  0  0  0
   17.0819   -4.7421    0.0000 C   0  0  0  0  0  0  0  0  0  0  0  0
   17.0837   -6.2419    0.0000 C   0  0  0  0  0  0  0  0  0  0  0  0
   15.7855   -6.9936    0.0000 O   0  0  0  0  0  0  0  0  0  0  0  0
    5.3994   -4.0200    0.0000 O   0  0  0  0  0  0  0  0  0  0  0  0
    5.3981   -2.5200    0.0000 C   0  0  0  0  0  0  0  0  0  0  0  0
    5.3967   -7.0217    0.0000 O   0  0  0  0  0  0  0  0  0  0  0  0
    4.0988   -6.2699    0.0000 C   0  0  0  0  0  0  0  0  0  0  0  0
    7.9906   -8.5243    0.0000 O   0  0  0  0  0  0  0  0  0  0  0  0
    6.6904   -9.2722    0.0000 C   0  0  0  0  0  0  0  0  0  0  0  0
   20.9681   -5.4773    0.0000 C   0  0  0  0  0  0  0  0  0  0  0  0
   20.4398   -7.5350    0.0000 Cl  0  0  0  0  0  0  0  0  0  0  0  0
   18.9275   -4.9442    0.0000 C   0  0  0  0  0  0  0  0  0  0  0  0
   22.2722   -6.2052    0.0000 O   0  0  0  0  0  0  0  0  0  0  0  0
   20.9505   -3.9773    0.0000 O   0  0  0  0  0  0  0  0  0  0  0  0
   22.2942   -7.7048    0.0000 C   0  0  0  0  0  0  0  0  0  0  0  0
 16 17  1  0  0  0  0
  7  9  1  0  0  0  0
 13 18  2  0  0  0  0
  1  2  1  0  0  0  0
 15 19  2  0  0  0  0
  9 10  1  0  0  0  0
 14 20  1  0  0  0  0
  5  6  2  0  0  0  0
 20 21  1  0  0  0  0
 21  1  1  0  0  0  0
  9 11  2  0  0  0  0
 21 22  2  0  0  0  0
  3  4  2  0  0  0  0
  3 23  1  0  0  0  0
 12 10  1  1  0  0  0
 23 24  1  0  0  0  0
 12 13  1  0  0  0  0
  4 25  1  0  0  0  0
  6  7  1  0  0  0  0
 25 26  1  0  0  0  0
  5 27  1  0  0  0  0
  7  8  2  0  0  0  0
 27 28  1  0  0  0  0
  8  3  1  0  0  0  0
  2 29  1  0  0  0  0
  4  5  1  0  0  0  0
  2 30  1  0  0  0  0
 12 17  1  0  0  0  0
  2 31  1  1  0  0  0
 13 14  1  0  0  0  0
 14 15  1  0  0  0  0
 29 32  1  0  0  0  0
 29 33  2  0  0  0  0
 15 16  1  0  0  0  0
 32 34  1  0  0  0  0
M  END
> <Value>
4.301029995663981

> <Relation>
=

> <SourceURI>
mol:CHEMBL397396

$$$$

Generated by Molecular Materials Informatics

 39 41  0  0  0  0  0  0  0  0999 V2000
    6.6793  -15.1433    0.0000 C   0  0  0  0  0  0  0  0  0  0  0  0
    6.6982  -16.6496    0.0000 C   0  0  0  0  0  0  0  0  0  0  0  0
    8.0113  -17.3759    0.0000 C   0  0  0  0  0  0  0  0  0  0  0  0
    9.2994  -16.5990    0.0000 C   0  0  0  0  0  0  0  0  0  0  0  0
    9.2692  -15.0918    0.0000 C   0  0  0  0  0  0  0  0  0  0  0  0
    7.9548  -14.3684    0.0000 C   0  0  0  0  0  0  0  0  0  0  0  0
   10.5551  -14.3180    0.0000 C   0  0  0  0  0  0  0  0  0  0  0  0
   10.5245  -12.8185    0.0000 O   0  0  0  0  0  0  0  0  0  0  0  0
   13.1489  -14.2651    0.0000 C   0  0  0  0  0  0  0  0  0  0  0  0
   14.4724  -14.9963    0.0000 C   0  0  0  0  0  0  0  0  0  0  0  0
   15.7526  -14.2322    0.0000 N   0  0  0  0  0  0  0  0  0  0  0  0
   15.7263  -12.7315    0.0000 C   0  0  0  0  0  0  0  0  0  0  0  0
   14.4102  -12.0001    0.0000 C   0  0  0  0  0  0  0  0  0  0  0  0
   13.1207  -12.7770    0.0000 C   0  0  0  0  0  0  0  0  0  0  0  0
   14.4959  -16.4961    0.0000 O   0  0  0  0  0  0  0  0  0  0  0  0
   17.0165  -11.9572    0.0000 O   0  0  0  0  0  0  0  0  0  0  0  0
   17.0573  -14.9574    0.0000 C   0  0  0  0  0  0  0  0  0  0  0  0
   18.3475  -14.1907    0.0000 C   0  0  0  0  0  0  0  0  0  0  0  0
   18.3180  -12.6912    0.0000 O   0  0  0  0  0  0  0  0  0  0  0  0
    8.0326  -18.8755    0.0000 O   0  0  0  0  0  0  0  0  0  0  0  0
    6.7496  -19.6492    0.0000 C   0  0  0  0  0  0  0  0  0  0  0  0
    5.4146  -17.4146    0.0000 O   0  0  0  0  0  0  0  0  0  0  0  0
    4.1033  -16.6879    0.0000 C   0  0  0  0  0  0  0  0  0  0  0  0
    5.3668  -14.4110    0.0000 O   0  0  0  0  0  0  0  0  0  0  0  0
    5.3368  -12.9116    0.0000 C   0  0  0  0  0  0  0  0  0  0  0  0
   20.9480  -14.1469    0.0000 C   0  0  0  0  0  0  0  0  0  0  0  0
   22.2583  -14.8770    0.0000 C   0  0  0  0  0  0  0  0  0  0  0  0
   20.9253  -12.6470    0.0000 C   0  0  0  0  0  0  0  0  0  0  0  0
   22.2128  -11.8774    0.0000 C   0  0  0  0  0  0  0  0  0  0  0  0
   22.2810  -16.3768    0.0000 O   0  0  0  0  0  0  0  0  0  0  0  0
   23.5456  -14.1076    0.0000 O   0  0  0  0  0  0  0  0  0  0  0  0
   23.5911  -17.1069    0.0000 C   0  0  0  0  0  0  0  0  0  0  0  0
   23.5169  -12.6090    0.0000 C   0  0  0  0  0  0  0  0  0  0  0  0
   24.8033  -11.8406    0.0000 C   0  0  0  0  0  0  0  0  0  0  0  0
   24.7813  -10.3394    0.0000 C   0  0  0  0  0  0  0  0  0  0  0  0
   23.4621   -9.6097    0.0000 C   0  0  0  0  0  0  0  0  0  0  0  0
   22.1810  -10.3822    0.0000 C   0  0  0  0  0  0  0  0  0  0  0  0
   11.8672  -15.0451    0.0000 N   0  0  0  0  0  0  0  0  0  0  0  0
   19.6605  -14.9165    0.0000 N   0  0  0  0  0  0  0  0  0  0  0  0
 10 11  1  0  0  0  0
 11 12  1  0  0  0  0
 12 13  1  0  0  0  0
 13 14  1  0  0  0  0
 10 15  2  0  0  0  0
 12 16  2  0  0  0  0
 11 17  1  0  0  0  0
 17 18  1  0  0  0  0
 18 19  2  0  0  0  0
  3 20  1  0  0  0  0
 20 21  1  0  0  0  0
  2 22  1  0  0  0  0
 22 23  1  0  0  0  0
  1 24  1  0  0  0  0
 24 25  1  0  0  0  0
 26 27  1  0  0  0  0
  1  2  2  0  0  0  0
 26 28  1  6  0  0  0
  2  3  1  0  0  0  0
 28 29  1  0  0  0  0
  3  4  2  0  0  0  0
 27 30  1  0  0  0  0
  4  5  1  0  0  0  0
 27 31  2  0  0  0  0
  5  6  2  0  0  0  0
 30 32  1  0  0  0  0
  6  1  1  0  0  0  0
 29 33  2  0  0  0  0
  5  7  1  0  0  0  0
 33 34  1  0  0  0  0
 34 35  2  0  0  0  0
  7  8  2  0  0  0  0
 35 36  1  0  0  0  0
 36 37  2  0  0  0  0
 37 29  1  0  0  0  0
  9 10  1  0  0  0  0
  9 14  1  0  0  0  0
  7 38  1  0  0  0  0
  9 38  1  1  0  0  0
 18 39  1  0  0  0  0
 39 26  1  0  0  0  0
M  END
> <Value>
4.335358024443875

> <Error>
0.0

> <Relation>
=

> <SourceURI>
mol:CHEMBL245398

$$$$

Generated by Molecular Materials Informatics

 33 34  0  0  0  0  0  0  0  0999 V2000
    6.9868  -17.8150    0.0000 C   0  0  0  0  0  0  0  0  0  0  0  0
    7.0093  -19.3191    0.0000 C   0  0  0  0  0  0  0  0  0  0  0  0
    8.3210  -20.0484    0.0000 C   0  0  0  0  0  0  0  0  0  0  0  0
    9.6111  -19.2757    0.0000 C   0  0  0  0  0  0  0  0  0  0  0  0
    9.5813  -17.7660    0.0000 C   0  0  0  0  0  0  0  0  0  0  0  0
    8.2686  -17.0435    0.0000 C   0  0  0  0  0  0  0  0  0  0  0  0
   10.8651  -16.9901    0.0000 C   0  0  0  0  0  0  0  0  0  0  0  0
   12.1789  -17.7139    0.0000 N   0  0  0  0  0  0  0  0  0  0  0  0
   10.8349  -15.4904    0.0000 O   0  0  0  0  0  0  0  0  0  0  0  0
   13.4625  -16.9379    0.0000 C   0  0  0  0  0  0  0  0  0  0  0  0
   14.7813  -17.6706    0.0000 C   0  0  0  0  0  0  0  0  0  0  0  0
   16.0611  -16.9011    0.0000 N   0  0  0  0  0  0  0  0  0  0  0  0
   16.0387  -15.4008    0.0000 C   0  0  0  0  0  0  0  0  0  0  0  0
   14.7251  -14.6730    0.0000 C   0  0  0  0  0  0  0  0  0  0  0  0
   13.4338  -15.4457    0.0000 C   0  0  0  0  0  0  0  0  0  0  0  0
   14.8067  -19.1704    0.0000 O   0  0  0  0  0  0  0  0  0  0  0  0
   17.3254  -14.6297    0.0000 O   0  0  0  0  0  0  0  0  0  0  0  0
   17.3721  -17.6299    0.0000 C   0  0  0  0  0  0  0  0  0  0  0  0
   18.6589  -16.8588    0.0000 C   0  0  0  0  0  0  0  0  0  0  0  0
   18.6343  -15.3592    0.0000 O   0  0  0  0  0  0  0  0  0  0  0  0
    8.3451  -21.5482    0.0000 O   0  0  0  0  0  0  0  0  0  0  0  0
    7.0582  -22.3191    0.0000 C   0  0  0  0  0  0  0  0  0  0  0  0
    5.7221  -20.0891    0.0000 O   0  0  0  0  0  0  0  0  0  0  0  0
    4.4115  -19.3595    0.0000 C   0  0  0  0  0  0  0  0  0  0  0  0
    5.6755  -17.0866    0.0000 O   0  0  0  0  0  0  0  0  0  0  0  0
    5.6508  -15.5868    0.0000 C   0  0  0  0  0  0  0  0  0  0  0  0
   19.9699  -17.5875    0.0000 N   0  0  0  0  0  0  0  0  0  0  0  0
   21.2565  -16.8166    0.0000 C   0  0  0  0  0  0  0  0  0  0  0  0
   22.5675  -17.5453    0.0000 C   0  0  0  0  0  0  0  0  0  0  0  0
   23.8543  -16.7742    0.0000 O   0  0  0  0  0  0  0  0  0  0  0  0
   22.5921  -19.0449    0.0000 O   0  0  0  0  0  0  0  0  0  0  0  0
   21.3054  -19.8160    0.0000 C   0  0  0  0  0  0  0  0  0  0  0  0
   21.2321  -15.3168    0.0000 C   0  0  0  0  0  0  0  0  0  0  0  0
 11 16  2  0  0  0  0
  7  8  1  0  0  0  0
 13 17  2  0  0  0  0
 12 18  1  0  0  0  0
  7  9  2  0  0  0  0
 18 19  1  0  0  0  0
  4  5  1  0  0  0  0
 19 20  2  0  0  0  0
 10  8  1  1  0  0  0
  3 21  1  0  0  0  0
 10 11  1  0  0  0  0
 21 22  1  0  0  0  0
  2  3  1  0  0  0  0
  2 23  1  0  0  0  0
  5  6  2  0  0  0  0
 23 24  1  0  0  0  0
  6  1  1  0  0  0  0
  1 25  1  0  0  0  0
  1  2  2  0  0  0  0
 25 26  1  0  0  0  0
  5  7  1  0  0  0  0
 19 27  1  0  0  0  0
 10 15  1  0  0  0  0
 27 28  1  0  0  0  0
 11 12  1  0  0  0  0
 28 29  1  0  0  0  0
 12 13  1  0  0  0  0
 29 30  2  0  0  0  0
 13 14  1  0  0  0  0
 29 31  1  0  0  0  0
 14 15  1  0  0  0  0
 31 32  1  0  0  0  0
  3  4  2  0  0  0  0
 28 33  1  1  0  0  0
M  END
> <Value>
4.723538195826756

> <Error>
0.0

> <Relation>
=

> <SourceURI>
mol:CHEMBL247390

$$$$

Generated by Molecular Materials Informatics

 28 29  0  0  0  0  0  0  0  0999 V2000
    9.9123  -23.1776    0.0000 C   0  0  0  0  0  0  0  0  0  0  0  0
   11.2133  -22.4308    0.0000 C   0  0  0  0  0  0  0  0  0  0  0  0
   12.5145  -23.1776    0.0000 N   0  0  0  0  0  0  0  0  0  0  0  0
   11.2133  -20.9295    0.0000 O   0  0  0  0  0  0  0  0  0  0  0  0
   13.8154  -22.4308    0.0000 C   0  0  0  0  0  0  0  0  0  0  0  0
   15.1075  -23.1805    0.0000 C   0  0  0  0  0  0  0  0  0  0  0  0
   16.3971  -22.4400    0.0000 N   0  0  0  0  0  0  0  0  0  0  0  0
   16.4049  -20.9383    0.0000 C   0  0  0  0  0  0  0  0  0  0  0  0
   15.1117  -20.1798    0.0000 C   0  0  0  0  0  0  0  0  0  0  0  0
   13.8030  -20.9308    0.0000 C   0  0  0  0  0  0  0  0  0  0  0  0
   15.1020  -24.6815    0.0000 O   0  0  0  0  0  0  0  0  0  0  0  0
   17.7088  -20.1888    0.0000 O   0  0  0  0  0  0  0  0  0  0  0  0
   17.6953  -23.1917    0.0000 C   0  0  0  0  0  0  0  0  0  0  0  0
   18.9993  -22.4499    0.0000 C   0  0  0  0  0  0  0  0  0  0  0  0
   20.2976  -23.2016    0.0000 N   0  0  0  0  0  0  0  0  0  0  0  0
   19.0049  -20.9485    0.0000 O   0  0  0  0  0  0  0  0  0  0  0  0
   21.5919  -22.4562    0.0000 O   0  0  0  0  0  0  0  0  0  0  0  0
    8.6158  -22.4188    0.0000 C   0  0  0  0  0  0  0  0  0  0  0  0
    7.3157  -23.1645    0.0000 C   0  0  0  0  0  0  0  0  0  0  0  0
    7.3110  -24.6662    0.0000 C   0  0  0  0  0  0  0  0  0  0  0  0
    8.6173  -25.4194    0.0000 C   0  0  0  0  0  0  0  0  0  0  0  0
    9.9123  -24.6695    0.0000 C   0  0  0  0  0  0  0  0  0  0  0  0
    8.6156  -26.9093    0.0000 O   0  0  0  0  0  0  0  0  0  0  0  0
    9.9099  -27.6549    0.0000 C   0  0  0  0  0  0  0  0  0  0  0  0
    6.0176  -25.4067    0.0000 O   0  0  0  0  0  0  0  0  0  0  0  0
    6.0160  -26.9002    0.0000 C   0  0  0  0  0  0  0  0  0  0  0  0
    6.0318  -22.4166    0.0000 O   0  0  0  0  0  0  0  0  0  0  0  0
    4.7360  -23.1596    0.0000 C   0  0  0  0  0  0  0  0  0  0  0  0
 13 14  1  0  0  0  0
 14 15  1  0  0  0  0
  5  3  1  1  0  0  0
 14 16  2  0  0  0  0
  5 10  1  0  0  0  0
 15 17  1  0  0  0  0
  6  7  1  0  0  0  0
  1 18  2  0  0  0  0
  7  8  1  0  0  0  0
 18 19  1  0  0  0  0
  8  9  1  0  0  0  0
 19 20  2  0  0  0  0
  9 10  1  0  0  0  0
 20 21  1  0  0  0  0
  5  6  1  0  0  0  0
 21 22  2  0  0  0  0
 22  1  1  0  0  0  0
  6 11  2  0  0  0  0
  2  3  1  0  0  0  0
 23 24  1  0  0  0  0
 21 23  1  0  0  0  0
  8 12  2  0  0  0  0
  1  2  1  0  0  0  0
 25 26  1  0  0  0  0
 20 25  1  0  0  0  0
  7 13  1  0  0  0  0
  2  4  2  0  0  0  0
 27 28  1  0  0  0  0
 19 27  1  0  0  0  0
M  END
> <Value>
5.508638306165727

> <Error>
0.0

> <Relation>
=

> <SourceURI>
mol:CHEMBL246122

$$$$

Generated by Molecular Materials Informatics

 27 28  0  0  0  0  0  0  0  0999 V2000
   -5.9183    0.8643    0.0000 C   0  0  0  0  0  0  0  0  0  0  0  0
   -5.8959   -0.6399    0.0000 C   0  0  0  0  0  0  0  0  0  0  0  0
   -4.5843   -1.3694    0.0000 C   0  0  0  0  0  0  0  0  0  0  0  0
   -3.2939   -0.5967    0.0000 C   0  0  0  0  0  0  0  0  0  0  0  0
   -3.3239    0.9132    0.0000 C   0  0  0  0  0  0  0  0  0  0  0  0
   -4.6365    1.6357    0.0000 C   0  0  0  0  0  0  0  0  0  0  0  0
   -2.0401    1.6890    0.0000 C   0  0  0  0  0  0  0  0  0  0  0  0
   -0.7263    0.9653    0.0000 N   0  0  0  0  0  0  0  0  0  0  0  0
   -2.0703    3.1888    0.0000 O   0  0  0  0  0  0  0  0  0  0  0  0
    0.5573    1.7412    0.0000 C   0  0  0  0  0  0  0  0  0  0  0  0
    1.8760    1.0084    0.0000 C   0  0  0  0  0  0  0  0  0  0  0  0
    3.1560    1.7779    0.0000 N   0  0  0  0  0  0  0  0  0  0  0  0
    3.1337    3.2784    0.0000 C   0  0  0  0  0  0  0  0  0  0  0  0
    1.8200    4.0062    0.0000 C   0  0  0  0  0  0  0  0  0  0  0  0
    0.5288    3.2335    0.0000 C   0  0  0  0  0  0  0  0  0  0  0  0
    1.9015   -0.4914    0.0000 O   0  0  0  0  0  0  0  0  0  0  0  0
    4.4202    4.0495    0.0000 O   0  0  0  0  0  0  0  0  0  0  0  0
    4.4671    1.0492    0.0000 C   0  0  0  0  0  0  0  0  0  0  0  0
    5.7537    1.8202    0.0000 C   0  0  0  0  0  0  0  0  0  0  0  0
    5.7293    3.3201    0.0000 O   0  0  0  0  0  0  0  0  0  0  0  0
   -4.5601   -2.8692    0.0000 O   0  0  0  0  0  0  0  0  0  0  0  0
   -5.8468   -3.6399    0.0000 C   0  0  0  0  0  0  0  0  0  0  0  0
   -7.1832   -1.4099    0.0000 O   0  0  0  0  0  0  0  0  0  0  0  0
   -8.4937   -0.6803    0.0000 C   0  0  0  0  0  0  0  0  0  0  0  0
   -7.2296    1.5926    0.0000 O   0  0  0  0  0  0  0  0  0  0  0  0
   -7.2545    3.0924    0.0000 C   0  0  0  0  0  0  0  0  0  0  0  0
    7.0647    1.0915    0.0000 O   0  0  0  0  0  0  0  0  0  0  0  0
 10 15  1  0  0  0  0
 11 12  1  0  0  0  0
 12 13  1  0  0  0  0
 13 14  1  0  0  0  0
 14 15  1  0  0  0  0
  3  4  2  0  0  0  0
 11 16  2  0  0  0  0
  7  8  1  0  0  0  0
 13 17  2  0  0  0  0
 12 18  1  0  0  0  0
  7  9  2  0  0  0  0
 18 19  1  0  0  0  0
  4  5  1  0  0  0  0
 19 20  2  0  0  0  0
 10  8  1  1  0  0  0
  3 21  1  0  0  0  0
 10 11  1  0  0  0  0
 21 22  1  0  0  0  0
  2  3  1  0  0  0  0
  2 23  1  0  0  0  0
  5  6  2  0  0  0  0
 23 24  1  0  0  0  0
  6  1  1  0  0  0  0
  1 25  1  0  0  0  0
  1  2  2  0  0  0  0
 25 26  1  0  0  0  0
  5  7  1  0  0  0  0
 19 27  1  0  0  0  0
M  END
> <Value>
4.302770657240282

> <Error>
0.0

> <Relation>
=

> <SourceURI>
mol:CHEMBL246178

$$$$

Generated by Molecular Materials Informatics

 35 36  0  0  0  0  0  0  0  0999 V2000
    5.8784   -4.2796    0.0000 C   0  0  0  0  0  0  0  0  0  0  0  0
    5.9008   -5.7838    0.0000 C   0  0  0  0  0  0  0  0  0  0  0  0
    7.2126   -6.5133    0.0000 C   0  0  0  0  0  0  0  0  0  0  0  0
    8.5028   -5.7406    0.0000 C   0  0  0  0  0  0  0  0  0  0  0  0
    8.4730   -4.2307    0.0000 C   0  0  0  0  0  0  0  0  0  0  0  0
    7.1603   -3.5082    0.0000 C   0  0  0  0  0  0  0  0  0  0  0  0
    9.7566   -3.4549    0.0000 C   0  0  0  0  0  0  0  0  0  0  0  0
   11.0704   -4.1786    0.0000 N   0  0  0  0  0  0  0  0  0  0  0  0
    9.7266   -1.9551    0.0000 O   0  0  0  0  0  0  0  0  0  0  0  0
   12.3542   -3.4027    0.0000 C   0  0  0  0  0  0  0  0  0  0  0  0
   13.6728   -4.1355    0.0000 C   0  0  0  0  0  0  0  0  0  0  0  0
   14.9528   -3.3660    0.0000 N   0  0  0  0  0  0  0  0  0  0  0  0
   14.9304   -1.8655    0.0000 C   0  0  0  0  0  0  0  0  0  0  0  0
   13.6168   -1.1377    0.0000 C   0  0  0  0  0  0  0  0  0  0  0  0
   12.3255   -1.9104    0.0000 C   0  0  0  0  0  0  0  0  0  0  0  0
   13.6984   -5.6353    0.0000 O   0  0  0  0  0  0  0  0  0  0  0  0
   16.2170   -1.0944    0.0000 O   0  0  0  0  0  0  0  0  0  0  0  0
   16.2639   -4.0947    0.0000 C   0  0  0  0  0  0  0  0  0  0  0  0
   17.5504   -3.3237    0.0000 C   0  0  0  0  0  0  0  0  0  0  0  0
   17.5260   -1.8238    0.0000 O   0  0  0  0  0  0  0  0  0  0  0  0
    7.2366   -8.0131    0.0000 O   0  0  0  0  0  0  0  0  0  0  0  0
    5.9499   -8.7838    0.0000 C   0  0  0  0  0  0  0  0  0  0  0  0
    4.6135   -6.5538    0.0000 O   0  0  0  0  0  0  0  0  0  0  0  0
    3.3032   -5.8242    0.0000 C   0  0  0  0  0  0  0  0  0  0  0  0
    4.5672   -3.5513    0.0000 O   0  0  0  0  0  0  0  0  0  0  0  0
    4.5423   -2.0515    0.0000 C   0  0  0  0  0  0  0  0  0  0  0  0
   18.8615   -4.0524    0.0000 N   0  0  0  0  0  0  0  0  0  0  0  0
   20.1482   -3.2813    0.0000 C   0  0  0  0  0  0  0  0  0  0  0  0
   21.4593   -4.0100    0.0000 C   0  0  0  0  0  0  0  0  0  0  0  0
   22.7460   -3.2389    0.0000 O   0  0  0  0  0  0  0  0  0  0  0  0
   21.4837   -5.5098    0.0000 O   0  0  0  0  0  0  0  0  0  0  0  0
   20.1971   -6.2809    0.0000 C   0  0  0  0  0  0  0  0  0  0  0  0
   20.1238   -1.7815    0.0000 C   0  0  0  0  0  0  0  0  0  0  0  0
   21.4104   -1.0104    0.0000 C   0  0  0  0  0  0  0  0  0  0  0  0
   18.8128   -1.0528    0.0000 C   0  0  0  0  0  0  0  0  0  0  0  0
 13 17  2  0  0  0  0
 12 18  1  0  0  0  0
  7  9  2  0  0  0  0
 18 19  1  0  0  0  0
  4  5  1  0  0  0  0
 19 20  2  0  0  0  0
 10  8  1  1  0  0  0
  3 21  1  0  0  0  0
 10 11  1  0  0  0  0
 21 22  1  0  0  0  0
  2  3  1  0  0  0  0
  2 23  1  0  0  0  0
  5  6  2  0  0  0  0
 23 24  1  0  0  0  0
  6  1  1  0  0  0  0
  1 25  1  0  0  0  0
  1  2  2  0  0  0  0
 25 26  1  0  0  0  0
  5  7  1  0  0  0  0
 19 27  1  0  0  0  0
 10 15  1  0  0  0  0
 27 28  1  0  0  0  0
 11 12  1  0  0  0  0
 28 29  1  0  0  0  0
 12 13  1  0  0  0  0
 29 30  2  0  0  0  0
 13 14  1  0  0  0  0
 29 31  1  0  0  0  0
 14 15  1  0  0  0  0
 31 32  1  0  0  0  0
  3  4  2  0  0  0  0
 28 33  1  1  0  0  0
 11 16  2  0  0  0  0
 33 34  1  0  0  0  0
  7  8  1  0  0  0  0
 33 35  1  0  0  0  0
M  END
> <Value>
4.669586226650809

> <Error>
0.0

> <Relation>
=

> <SourceURI>
mol:CHEMBL246990

$$$$

Generated by Molecular Materials Informatics

 21 21  0  0  0  0  0  0  0  0999 V2000
    5.2153   -4.5739    0.0000 C   0  0  0  0  0  0  0  0  0  0  0  0
    3.9048   -5.3239    0.0000 C   0  0  0  0  0  0  0  0  0  0  0  0
    6.5108   -5.3239    0.0000 C   0  0  0  0  0  0  0  0  0  0  0  0
    5.2153   -3.0739    0.0000 C   0  0  0  0  0  0  0  0  0  0  0  0
    6.5108   -6.8239    0.0000 O   0  0  0  0  0  0  0  0  0  0  0  0
    3.9048   -6.8239    0.0000 O   0  0  0  0  0  0  0  0  0  0  0  0
    2.6093   -4.5739    0.0000 N   0  0  0  0  0  0  0  0  0  0  0  0
    7.8139   -4.5739    0.0000 N   0  0  0  0  0  0  0  0  0  0  0  0
    1.3139   -5.3239    0.0000 O   0  0  0  0  0  0  0  0  0  0  0  0
   10.4048   -9.0588    0.0000 C   0  0  0  0  0  0  0  0  0  0  0  0
    6.5108   -2.3239    0.0000 C   0  0  0  0  0  0  0  0  0  0  0  0
    9.1093   -5.3088    0.0000 C   0  0  0  0  0  0  0  0  0  0  0  0
   10.4048   -7.5588    0.0000 C   0  0  0  0  0  0  0  0  0  0  0  0
    9.1093   -9.8011    0.0000 C   0  0  0  0  0  0  0  0  0  0  0  0
   11.7002   -9.7860    0.0000 C   0  0  0  0  0  0  0  0  0  0  0  0
    9.1093   -6.8088    0.0000 C   0  0  0  0  0  0  0  0  0  0  0  0
    6.5108   -0.8239    0.0000 C   0  0  0  0  0  0  0  0  0  0  0  0
    8.0108   -2.3088    0.0000 C   0  0  0  0  0  0  0  0  0  0  0  0
    9.1093  -11.3011    0.0000 C   0  0  0  0  0  0  0  0  0  0  0  0
   11.7153  -11.2860    0.0000 C   0  0  0  0  0  0  0  0  0  0  0  0
   10.4048  -12.0511    0.0000 C   0  0  0  0  0  0  0  0  0  0  0  0
  2  1  1  0  0  0  0
  3  1  1  0  0  0  0
  4  1  1  0  0  0  0
  5  3  2  0  0  0  0
  6  2  2  0  0  0  0
  7  2  1  0  0  0  0
  8  3  1  0  0  0  0
  9  7  1  0  0  0  0
 10 13  1  0  0  0  0
 11  4  1  0  0  0  0
 12  8  1  0  0  0  0
 13 16  1  0  0  0  0
 14 10  2  0  0  0  0
 15 10  1  0  0  0  0
 16 12  1  0  0  0  0
 17 11  1  0  0  0  0
 18 11  1  0  0  0  0
 19 14  1  0  0  0  0
 20 15  2  0  0  0  0
 21 20  1  0  0  0  0
 21 19  2  0  0  0  0
M  END
> <Value>
6.277366077466188

> <Relation>
=

> <SourceURI>
mol:CHEMBL116641

$$$$

Generated by Molecular Materials Informatics

 32 34  0  0  0  0  0  0  0  0999 V2000
    0.0923   -6.9710    0.0000 C   0  0  0  0  0  0  0  0  0  0  0  0
    1.3912   -6.2211    0.0000 C   0  0  0  0  0  0  0  0  0  0  0  0
   -1.2067   -6.2211    0.0000 N   0  0  0  0  0  0  0  0  0  0  0  0
    0.0923   -8.4710    0.0000 O   0  0  0  0  0  0  0  0  0  0  0  0
    2.6902   -6.9710    0.0000 C   0  0  0  0  0  0  0  0  0  0  0  0
    1.3912   -4.7211    0.0000 C   0  0  0  0  0  0  0  0  0  0  0  0
    2.6902   -3.9711    0.0000 C   0  0  0  0  0  0  0  0  0  0  0  0
    2.6902   -8.4710    0.0000 O   0  0  0  0  0  0  0  0  0  0  0  0
    3.9893   -6.2211    0.0000 N   0  0  0  0  0  0  0  0  0  0  0  0
    5.2883   -6.9710    0.0000 O   0  0  0  0  0  0  0  0  0  0  0  0
   -2.5058   -6.9710    0.0000 C   0  0  0  0  0  0  0  0  0  0  0  0
    3.9886   -4.7262    0.0000 C   0  0  0  0  0  0  0  0  0  0  0  0
    5.2867   -3.9775    0.0000 C   0  0  0  0  0  0  0  0  0  0  0  0
    5.2876   -2.4759    0.0000 C   0  0  0  0  0  0  0  0  0  0  0  0
    3.9795   -1.7263    0.0000 C   0  0  0  0  0  0  0  0  0  0  0  0
    2.6866   -2.4792    0.0000 C   0  0  0  0  0  0  0  0  0  0  0  0
    6.5854   -4.7280    0.0000 O   0  0  0  0  0  0  0  0  0  0  0  0
    7.8848   -3.9788    0.0000 C   0  0  0  0  0  0  0  0  0  0  0  0
    9.1802   -4.7389    0.0000 C   0  0  0  0  0  0  0  0  0  0  0  0
   10.4787   -3.9908    0.0000 C   0  0  0  0  0  0  0  0  0  0  0  0
   10.4802   -2.4892    0.0000 C   0  0  0  0  0  0  0  0  0  0  0  0
    9.1724   -1.7388    0.0000 C   0  0  0  0  0  0  0  0  0  0  0  0
    7.8793   -2.4914    0.0000 C   0  0  0  0  0  0  0  0  0  0  0  0
   -3.8047   -6.2211    0.0000 C   0  0  0  0  0  0  0  0  0  0  0  0
   -5.1037   -6.9710    0.0000 C   0  0  0  0  0  0  0  0  0  0  0  0
   -6.4028   -6.2211    0.0000 C   0  0  0  0  0  0  0  0  0  0  0  0
   -7.7018   -6.9710    0.0000 C   0  0  0  0  0  0  0  0  0  0  0  0
   -8.9992   -6.2147    0.0000 C   0  0  0  0  0  0  0  0  0  0  0  0
  -10.2974   -6.9634    0.0000 C   0  0  0  0  0  0  0  0  0  0  0  0
  -10.2983   -8.4650    0.0000 C   0  0  0  0  0  0  0  0  0  0  0  0
   -8.9901   -9.2146    0.0000 C   0  0  0  0  0  0  0  0  0  0  0  0
   -7.6973   -8.4617    0.0000 C   0  0  0  0  0  0  0  0  0  0  0  0
 16  7  1  0  0  0  0
 13 17  1  0  0  0  0
  5  9  1  0  0  0  0
 17 18  1  0  0  0  0
  2  5  1  0  0  0  0
 18 19  2  0  0  0  0
  9 10  1  0  0  0  0
 19 20  1  0  0  0  0
  1  3  1  0  0  0  0
 20 21  2  0  0  0  0
  3 11  1  0  0  0  0
 21 22  1  0  0  0  0
  2  6  1  0  0  0  0
 22 23  2  0  0  0  0
 23 18  1  0  0  0  0
  7 12  2  0  0  0  0
 11 24  1  0  0  0  0
  1  2  1  0  0  0  0
 24 25  1  0  0  0  0
 12 13  1  0  0  0  0
 25 26  1  0  0  0  0
  6  7  1  0  0  0  0
 26 27  1  0  0  0  0
 13 14  2  0  0  0  0
 27 28  2  0  0  0  0
  1  4  2  0  0  0  0
 28 29  1  0  0  0  0
 14 15  1  0  0  0  0
 29 30  2  0  0  0  0
  5  8  2  0  0  0  0
 30 31  1  0  0  0  0
 15 16  2  0  0  0  0
 31 32  2  0  0  0  0
 32 27  1  0  0  0  0
M  END
> <Value>
5.0

> <Relation>
<

> <SourceURI>
mol:CHEMBL376199

$$$$

Generated by Molecular Materials Informatics

 20 20  0  0  0  0  0  0  0  0999 V2000
    0.1119  -19.2542    0.0000 C   0  0  0  0  0  0  0  0  0  0  0  0
    1.4108  -18.5042    0.0000 C   0  0  0  0  0  0  0  0  0  0  0  0
   -1.1871  -18.5042    0.0000 N   0  0  0  0  0  0  0  0  0  0  0  0
    0.1119  -20.7541    0.0000 O   0  0  0  0  0  0  0  0  0  0  0  0
    2.7098  -19.2542    0.0000 C   0  0  0  0  0  0  0  0  0  0  0  0
    1.4108  -17.0042    0.0000 C   0  0  0  0  0  0  0  0  0  0  0  0
    2.7098  -16.2542    0.0000 C   0  0  0  0  0  0  0  0  0  0  0  0
    2.7098  -14.7543    0.0000 C   0  0  0  0  0  0  0  0  0  0  0  0
    4.0089  -17.0042    0.0000 C   0  0  0  0  0  0  0  0  0  0  0  0
    2.7098  -20.7541    0.0000 O   0  0  0  0  0  0  0  0  0  0  0  0
    4.0089  -18.5042    0.0000 N   0  0  0  0  0  0  0  0  0  0  0  0
    5.3079  -19.2542    0.0000 O   0  0  0  0  0  0  0  0  0  0  0  0
   -2.4862  -19.2542    0.0000 C   0  0  0  0  0  0  0  0  0  0  0  0
   -3.7851  -18.5042    0.0000 C   0  0  0  0  0  0  0  0  0  0  0  0
   -3.7756  -17.0022    0.0000 C   0  0  0  0  0  0  0  0  0  0  0  0
   -5.0732  -16.2524    0.0000 C   0  0  0  0  0  0  0  0  0  0  0  0
   -6.3739  -17.0024    0.0000 C   0  0  0  0  0  0  0  0  0  0  0  0
   -6.3692  -18.5102    0.0000 C   0  0  0  0  0  0  0  0  0  0  0  0
   -5.0707  -19.2532    0.0000 C   0  0  0  0  0  0  0  0  0  0  0  0
   -7.6740  -16.2542    0.0000 F   0  0  0  0  0  0  0  0  0  0  0  0
  1  3  1  0  0  0  0
  5 11  1  0  0  0  0
  2  6  1  0  0  0  0
 11 12  1  0  0  0  0
  1  2  1  0  0  0  0
  3 13  1  0  0  0  0
  6  7  1  0  0  0  0
 13 14  1  0  0  0  0
  1  4  2  0  0  0  0
 14 15  2  0  0  0  0
  7  8  1  0  0  0  0
 15 16  1  0  0  0  0
 16 17  2  0  0  0  0
  7  9  1  0  0  0  0
 17 18  1  0  0  0  0
  2  5  1  0  0  0  0
 18 19  2  0  0  0  0
 19 14  1  0  0  0  0
  5 10  2  0  0  0  0
 17 20  1  0  0  0  0
M  END
> <Value>
5.522878745280337

> <Relation>
=

> <SourceURI>
mol:CHEMBL442042

$$$$

Generated by Molecular Materials Informatics

 22 23  0  0  0  0  0  0  0  0999 V2000
    9.9181  -18.9733    0.0000 N   0  0  0  0  0  0  0  0  0  0  0  0
   11.2171  -19.7233    0.0000 C   0  0  0  0  0  0  0  0  0  0  0  0
   12.5161  -18.9733    0.0000 C   0  0  0  0  0  0  0  0  0  0  0  0
   11.2171  -21.2233    0.0000 O   0  0  0  0  0  0  0  0  0  0  0  0
   13.8151  -19.7233    0.0000 C   0  0  0  0  0  0  0  0  0  0  0  0
   15.1142  -18.9733    0.0000 N   0  0  0  0  0  0  0  0  0  0  0  0
   13.8151  -21.2233    0.0000 O   0  0  0  0  0  0  0  0  0  0  0  0
   16.4133  -19.7233    0.0000 O   0  0  0  0  0  0  0  0  0  0  0  0
   12.5161  -17.4733    0.0000 C   0  0  0  0  0  0  0  0  0  0  0  0
   13.8151  -16.7233    0.0000 C   0  0  0  0  0  0  0  0  0  0  0  0
   13.8151  -15.2233    0.0000 C   0  0  0  0  0  0  0  0  0  0  0  0
   15.1142  -17.4733    0.0000 C   0  0  0  0  0  0  0  0  0  0  0  0
    8.6190  -19.7233    0.0000 C   0  0  0  0  0  0  0  0  0  0  0  0
    7.3275  -18.9735    0.0000 C   0  0  0  0  0  0  0  0  0  0  0  0
    7.3233  -21.9717    0.0000 C   0  0  0  0  0  0  0  0  0  0  0  0
    8.6299  -21.2250    0.0000 C   0  0  0  0  0  0  0  0  0  0  0  0
    6.0246  -21.2177    0.0000 C   0  0  0  0  0  0  0  0  0  0  0  0
    6.0335  -19.7217    0.0000 C   0  0  0  0  0  0  0  0  0  0  0  0
    4.7446  -18.9693    0.0000 C   0  0  0  0  0  0  0  0  0  0  0  0
    3.4457  -19.7106    0.0000 C   0  0  0  0  0  0  0  0  0  0  0  0
    3.4439  -21.2122    0.0000 C   0  0  0  0  0  0  0  0  0  0  0  0
    4.7341  -21.9580    0.0000 C   0  0  0  0  0  0  0  0  0  0  0  0
  5  6  1  0  0  0  0
 10 12  1  0  0  0  0
  1  2  1  0  0  0  0
  1 13  1  0  0  0  0
 13 14  1  0  0  0  0
  5  7  2  0  0  0  0
  2  4  2  0  0  0  0
  6  8  1  0  0  0  0
 13 16  1  0  0  0  0
 14 18  1  0  0  0  0
 17 15  1  0  0  0  0
 15 16  1  0  0  0  0
  3  9  1  0  0  0  0
 17 18  2  0  0  0  0
  3  5  1  0  0  0  0
 18 19  1  0  0  0  0
  9 10  1  0  0  0  0
 19 20  2  0  0  0  0
  2  3  1  0  0  0  0
 20 21  1  0  0  0  0
 10 11  1  0  0  0  0
 21 22  2  0  0  0  0
 22 17  1  0  0  0  0
M  END
> <Value>
5.517126416391246

> <Relation>
=

> <SourceURI>
mol:CHEMBL390070

$$$$

Generated by Molecular Materials Informatics

 20 20  0  0  0  0  0  0  0  0999 V2000
    8.5925   -0.2576    0.0000 C   0  0  0  0  0  0  0  0  0  0  0  0
    9.8916    0.4924    0.0000 C   0  0  0  0  0  0  0  0  0  0  0  0
    7.2937    0.4924    0.0000 N   0  0  0  0  0  0  0  0  0  0  0  0
    8.5925   -1.7576    0.0000 O   0  0  0  0  0  0  0  0  0  0  0  0
   11.1907   -0.2576    0.0000 C   0  0  0  0  0  0  0  0  0  0  0  0
    9.8916    1.9924    0.0000 C   0  0  0  0  0  0  0  0  0  0  0  0
   11.1907    2.7424    0.0000 C   0  0  0  0  0  0  0  0  0  0  0  0
   11.1907    4.2423    0.0000 C   0  0  0  0  0  0  0  0  0  0  0  0
   12.4896    1.9924    0.0000 C   0  0  0  0  0  0  0  0  0  0  0  0
   11.1907   -1.7576    0.0000 O   0  0  0  0  0  0  0  0  0  0  0  0
   12.4896    0.4924    0.0000 N   0  0  0  0  0  0  0  0  0  0  0  0
   13.7886   -0.2576    0.0000 O   0  0  0  0  0  0  0  0  0  0  0  0
    5.9946   -0.2576    0.0000 C   0  0  0  0  0  0  0  0  0  0  0  0
    4.6955    0.4924    0.0000 C   0  0  0  0  0  0  0  0  0  0  0  0
    3.3964   -0.2576    0.0000 C   0  0  0  0  0  0  0  0  0  0  0  0
    2.0988    0.4984    0.0000 C   0  0  0  0  0  0  0  0  0  0  0  0
    0.8007   -0.2503    0.0000 C   0  0  0  0  0  0  0  0  0  0  0  0
    0.7998   -1.7519    0.0000 C   0  0  0  0  0  0  0  0  0  0  0  0
    2.1079   -2.5015    0.0000 C   0  0  0  0  0  0  0  0  0  0  0  0
    3.4008   -1.7485    0.0000 C   0  0  0  0  0  0  0  0  0  0  0  0
  1  3  1  0  0  0  0
  5 11  1  0  0  0  0
  2  6  1  0  0  0  0
 11 12  1  0  0  0  0
  1  2  1  0  0  0  0
  3 13  1  0  0  0  0
  6  7  1  0  0  0  0
 13 14  1  0  0  0  0
  1  4  2  0  0  0  0
 14 15  1  0  0  0  0
  7  8  1  0  0  0  0
 15 16  2  0  0  0  0
 16 17  1  0  0  0  0
  7  9  1  0  0  0  0
 17 18  2  0  0  0  0
  2  5  1  0  0  0  0
 18 19  1  0  0  0  0
  5 10  2  0  0  0  0
 19 20  2  0  0  0  0
 20 15  1  0  0  0  0
M  END
> <Value>
6.007004901568658

> <Relation>
=

> <SourceURI>
mol:CHEMBL220010

$$$$

Generated by Molecular Materials Informatics

 19 19  0  0  0  0  0  0  0  0999 V2000
   -0.5598   -0.2750    0.0000 C   0  0  0  0  0  0  0  0  0  0  0  0
    0.7393    0.4750    0.0000 C   0  0  0  0  0  0  0  0  0  0  0  0
   -1.8589    0.4750    0.0000 N   0  0  0  0  0  0  0  0  0  0  0  0
   -0.5598   -1.7750    0.0000 O   0  0  0  0  0  0  0  0  0  0  0  0
    2.0382   -0.2750    0.0000 C   0  0  0  0  0  0  0  0  0  0  0  0
    0.7393    1.9750    0.0000 C   0  0  0  0  0  0  0  0  0  0  0  0
    2.0382    2.7250    0.0000 C   0  0  0  0  0  0  0  0  0  0  0  0
    2.0382    4.2250    0.0000 C   0  0  0  0  0  0  0  0  0  0  0  0
    3.3373    1.9750    0.0000 C   0  0  0  0  0  0  0  0  0  0  0  0
    2.0382   -1.7750    0.0000 O   0  0  0  0  0  0  0  0  0  0  0  0
    3.3373    0.4750    0.0000 N   0  0  0  0  0  0  0  0  0  0  0  0
    4.6364   -0.2750    0.0000 O   0  0  0  0  0  0  0  0  0  0  0  0
   -3.1578   -0.2750    0.0000 C   0  0  0  0  0  0  0  0  0  0  0  0
   -4.4569    0.4750    0.0000 C   0  0  0  0  0  0  0  0  0  0  0  0
   -4.4474    1.9770    0.0000 C   0  0  0  0  0  0  0  0  0  0  0  0
   -5.7449    2.7268    0.0000 C   0  0  0  0  0  0  0  0  0  0  0  0
   -7.0458    1.9766    0.0000 C   0  0  0  0  0  0  0  0  0  0  0  0
   -7.0411    0.4690    0.0000 C   0  0  0  0  0  0  0  0  0  0  0  0
   -5.7423   -0.2741    0.0000 C   0  0  0  0  0  0  0  0  0  0  0  0
  5 10  2  0  0  0  0
  1  3  1  0  0  0  0
  5 11  1  0  0  0  0
  2  6  1  0  0  0  0
 11 12  1  0  0  0  0
  1  2  1  0  0  0  0
  3 13  1  0  0  0  0
  6  7  1  0  0  0  0
 13 14  1  0  0  0  0
  1  4  2  0  0  0  0
 14 15  2  0  0  0  0
  7  8  1  0  0  0  0
 15 16  1  0  0  0  0
 16 17  2  0  0  0  0
  7  9  1  0  0  0  0
 17 18  1  0  0  0  0
  2  5  1  0  0  0  0
 18 19  2  0  0  0  0
 19 14  1  0  0  0  0
M  END
> <Value>
6.229147988357855

> <Relation>
=

> <SourceURI>
mol:CHEMBL220253

$$$$

Generated by Molecular Materials Informatics

 26 27  0  0  0  0  0  0  0  0999 V2000
    2.6367  -24.9125    0.0000 C   0  0  0  0  0  0  0  0  0  0  0  0
    3.9356  -24.1625    0.0000 C   0  0  0  0  0  0  0  0  0  0  0  0
    1.3376  -24.1625    0.0000 N   0  0  0  0  0  0  0  0  0  0  0  0
    2.6367  -26.4125    0.0000 O   0  0  0  0  0  0  0  0  0  0  0  0
    5.2347  -24.9125    0.0000 C   0  0  0  0  0  0  0  0  0  0  0  0
    3.9356  -22.6625    0.0000 C   0  0  0  0  0  0  0  0  0  0  0  0
    5.2347  -21.9125    0.0000 C   0  0  0  0  0  0  0  0  0  0  0  0
    5.2347  -20.4125    0.0000 C   0  0  0  0  0  0  0  0  0  0  0  0
    6.5338  -22.6625    0.0000 C   0  0  0  0  0  0  0  0  0  0  0  0
    5.2347  -26.4125    0.0000 O   0  0  0  0  0  0  0  0  0  0  0  0
    6.5338  -24.1625    0.0000 N   0  0  0  0  0  0  0  0  0  0  0  0
    7.8328  -24.9125    0.0000 O   0  0  0  0  0  0  0  0  0  0  0  0
    0.0385  -24.9125    0.0000 C   0  0  0  0  0  0  0  0  0  0  0  0
   -1.2604  -24.1625    0.0000 C   0  0  0  0  0  0  0  0  0  0  0  0
   -1.2510  -22.6605    0.0000 C   0  0  0  0  0  0  0  0  0  0  0  0
   -2.5486  -21.9107    0.0000 C   0  0  0  0  0  0  0  0  0  0  0  0
   -3.8493  -22.6609    0.0000 C   0  0  0  0  0  0  0  0  0  0  0  0
   -3.8446  -24.1685    0.0000 C   0  0  0  0  0  0  0  0  0  0  0  0
   -2.5461  -24.9116    0.0000 C   0  0  0  0  0  0  0  0  0  0  0  0
   -5.1410  -24.9230    0.0000 O   0  0  0  0  0  0  0  0  0  0  0  0
   -6.4426  -24.1778    0.0000 C   0  0  0  0  0  0  0  0  0  0  0  0
   -6.4388  -22.6758    0.0000 C   0  0  0  0  0  0  0  0  0  0  0  0
   -7.7390  -21.9305    0.0000 C   0  0  0  0  0  0  0  0  0  0  0  0
   -9.0371  -22.6852    0.0000 C   0  0  0  0  0  0  0  0  0  0  0  0
   -9.0270  -24.1929    0.0000 C   0  0  0  0  0  0  0  0  0  0  0  0
   -7.7259  -24.9314    0.0000 C   0  0  0  0  0  0  0  0  0  0  0  0
  6  7  1  0  0  0  0
 13 14  1  0  0  0  0
  1  4  2  0  0  0  0
 14 15  2  0  0  0  0
  7  8  1  0  0  0  0
 15 16  1  0  0  0  0
 16 17  2  0  0  0  0
  7  9  1  0  0  0  0
 17 18  1  0  0  0  0
  2  5  1  0  0  0  0
 18 19  2  0  0  0  0
 19 14  1  0  0  0  0
  5 10  2  0  0  0  0
 18 20  1  0  0  0  0
  1  3  1  0  0  0  0
 20 21  1  0  0  0  0
  5 11  1  0  0  0  0
 21 22  2  0  0  0  0
  2  6  1  0  0  0  0
 22 23  1  0  0  0  0
 11 12  1  0  0  0  0
 23 24  2  0  0  0  0
  1  2  1  0  0  0  0
 24 25  1  0  0  0  0
  3 13  1  0  0  0  0
 25 26  2  0  0  0  0
 26 21  1  0  0  0  0
M  END
> <Value>
6.3535962737769305

> <Error>
0.0

> <Relation>
=

> <SourceURI>
mol:CHEMBL425291

$$$$

Generated by Molecular Materials Informatics

 22 23  0  0  0  0  0  0  0  0999 V2000
    5.5102   -5.4602    0.0000 C   0  0  0  0  0  0  0  0  0  0  0  0
    6.8057   -6.2102    0.0000 C   0  0  0  0  0  0  0  0  0  0  0  0
    4.1997   -6.2102    0.0000 C   0  0  0  0  0  0  0  0  0  0  0  0
    8.1087   -5.4602    0.0000 N   0  0  0  0  0  0  0  0  0  0  0  0
    5.5102   -3.9602    0.0000 C   0  0  0  0  0  0  0  0  0  0  0  0
    6.8057   -7.7102    0.0000 O   0  0  0  0  0  0  0  0  0  0  0  0
    4.1997   -7.7102    0.0000 O   0  0  0  0  0  0  0  0  0  0  0  0
    2.9042   -5.4602    0.0000 N   0  0  0  0  0  0  0  0  0  0  0  0
    9.4042   -6.1951    0.0000 C   0  0  0  0  0  0  0  0  0  0  0  0
    4.7451   -2.6497    0.0000 C   0  0  0  0  0  0  0  0  0  0  0  0
    1.6087   -6.2102    0.0000 O   0  0  0  0  0  0  0  0  0  0  0  0
    9.4042   -7.6951    0.0000 C   0  0  0  0  0  0  0  0  0  0  0  0
    5.5102   -1.3315    0.0000 C   0  0  0  0  0  0  0  0  0  0  0  0
    3.2451   -2.6497    0.0000 C   0  0  0  0  0  0  0  0  0  0  0  0
    8.1011   -8.4451    0.0000 C   0  0  0  0  0  0  0  0  0  0  0  0
   10.6997   -8.4375    0.0000 C   0  0  0  0  0  0  0  0  0  0  0  0
    2.4724   -1.3466    0.0000 C   0  0  0  0  0  0  0  0  0  0  0  0
    8.1011   -9.9451    0.0000 C   0  0  0  0  0  0  0  0  0  0  0  0
   10.6997   -9.9224    0.0000 C   0  0  0  0  0  0  0  0  0  0  0  0
    4.7451   -0.0133    0.0000 C   0  0  0  0  0  0  0  0  0  0  0  0
    3.2224   -0.0284    0.0000 C   0  0  0  0  0  0  0  0  0  0  0  0
    9.4042  -10.6951    0.0000 C   0  0  0  0  0  0  0  0  0  0  0  0
  2  1  1  0  0  0  0
  3  1  1  0  0  0  0
  4  2  1  0  0  0  0
  5  1  1  0  0  0  0
  6  2  2  0  0  0  0
  7  3  2  0  0  0  0
  8  3  1  0  0  0  0
  9  4  1  0  0  0  0
 10  5  1  0  0  0  0
 11  8  1  0  0  0  0
 12  9  1  0  0  0  0
 13 10  2  0  0  0  0
 14 10  1  0  0  0  0
 15 12  2  0  0  0  0
 16 12  1  0  0  0  0
 17 14  2  0  0  0  0
 18 15  1  0  0  0  0
 19 16  2  0  0  0  0
 20 13  1  0  0  0  0
 21 17  1  0  0  0  0
 22 19  1  0  0  0  0
 21 20  2  0  0  0  0
 22 18  2  0  0  0  0
M  END
> <Value>
5.0

> <Relation>
<

> <SourceURI>
mol:CHEMBL113827

$$$$

Generated by Molecular Materials Informatics

 26 28  0  0  0  0  0  0  0  0999 V2000
   10.6927   -6.3705    0.0000 N   0  0  0  0  0  0  0  0  0  0  0  0
   11.9916   -7.1205    0.0000 C   0  0  0  0  0  0  0  0  0  0  0  0
   13.2908   -6.3705    0.0000 C   0  0  0  0  0  0  0  0  0  0  0  0
   11.9916   -8.6205    0.0000 O   0  0  0  0  0  0  0  0  0  0  0  0
   14.5899   -7.1205    0.0000 C   0  0  0  0  0  0  0  0  0  0  0  0
   15.8890   -6.3705    0.0000 N   0  0  0  0  0  0  0  0  0  0  0  0
   14.5899   -8.6205    0.0000 O   0  0  0  0  0  0  0  0  0  0  0  0
   17.1879   -7.1205    0.0000 O   0  0  0  0  0  0  0  0  0  0  0  0
   13.2908   -4.8704    0.0000 C   0  0  0  0  0  0  0  0  0  0  0  0
   14.5899   -4.1204    0.0000 C   0  0  0  0  0  0  0  0  0  0  0  0
    9.3936   -7.1205    0.0000 C   0  0  0  0  0  0  0  0  0  0  0  0
    8.0945   -6.3705    0.0000 C   0  0  0  0  0  0  0  0  0  0  0  0
   15.9566   -4.7199    0.0000 N   0  0  0  0  0  0  0  0  0  0  0  0
   14.7431   -2.6182    0.0000 N   0  0  0  0  0  0  0  0  0  0  0  0
   16.2103   -2.3060    0.0000 C   0  0  0  0  0  0  0  0  0  0  0  0
   16.9561   -3.6040    0.0000 C   0  0  0  0  0  0  0  0  0  0  0  0
   18.4496   -3.6053    0.0000 C   0  0  0  0  0  0  0  0  0  0  0  0
   19.1992   -2.3102    0.0000 C   0  0  0  0  0  0  0  0  0  0  0  0
   18.4443   -1.0109    0.0000 C   0  0  0  0  0  0  0  0  0  0  0  0
   16.9534   -1.0158    0.0000 C   0  0  0  0  0  0  0  0  0  0  0  0
   13.6269   -1.6162    0.0000 C   0  0  0  0  0  0  0  0  0  0  0  0
    8.1036   -4.8686    0.0000 C   0  0  0  0  0  0  0  0  0  0  0  0
    6.8061   -4.1186    0.0000 C   0  0  0  0  0  0  0  0  0  0  0  0
    5.5052   -4.8688    0.0000 C   0  0  0  0  0  0  0  0  0  0  0  0
    5.5101   -6.3766    0.0000 C   0  0  0  0  0  0  0  0  0  0  0  0
    6.8087   -7.1196    0.0000 C   0  0  0  0  0  0  0  0  0  0  0  0
  5  7  2  0  0  0  0
 13 16  1  0  0  0  0
 15 14  1  0  0  0  0
 14 10  1  0  0  0  0
  2  4  2  0  0  0  0
  6  8  1  0  0  0  0
 15 16  2  0  0  0  0
 16 17  1  0  0  0  0
  3  9  1  0  0  0  0
 17 18  2  0  0  0  0
  3  5  1  0  0  0  0
 18 19  1  0  0  0  0
  9 10  1  0  0  0  0
 19 20  2  0  0  0  0
 20 15  1  0  0  0  0
  2  3  1  0  0  0  0
 14 21  1  0  0  0  0
  1 11  1  0  0  0  0
 12 22  2  0  0  0  0
  5  6  1  0  0  0  0
 22 23  1  0  0  0  0
 11 12  1  0  0  0  0
 23 24  2  0  0  0  0
 10 13  2  0  0  0  0
 24 25  1  0  0  0  0
  1  2  1  0  0  0  0
 25 26  2  0  0  0  0
 26 12  1  0  0  0  0
M  END
> <Value>
6.1438755557577

> <Relation>
=

> <SourceURI>
mol:CHEMBL223711

$$$$

Generated by Molecular Materials Informatics

 24 25  0  0  0  0  0  0  0  0999 V2000
    1.0264  -12.7917    0.0000 C   0  0  0  0  0  0  0  0  0  0  0  0
    2.3254  -12.0417    0.0000 C   0  0  0  0  0  0  0  0  0  0  0  0
   -0.2727  -12.0417    0.0000 N   0  0  0  0  0  0  0  0  0  0  0  0
    1.0264  -14.2917    0.0000 O   0  0  0  0  0  0  0  0  0  0  0  0
    3.6244  -12.7917    0.0000 C   0  0  0  0  0  0  0  0  0  0  0  0
    2.3254  -10.5417    0.0000 C   0  0  0  0  0  0  0  0  0  0  0  0
    3.6244   -9.7917    0.0000 C   0  0  0  0  0  0  0  0  0  0  0  0
    3.6244   -8.2917    0.0000 C   0  0  0  0  0  0  0  0  0  0  0  0
    4.9234  -10.5417    0.0000 C   0  0  0  0  0  0  0  0  0  0  0  0
    3.6244  -14.2917    0.0000 O   0  0  0  0  0  0  0  0  0  0  0  0
    4.9234  -12.0417    0.0000 N   0  0  0  0  0  0  0  0  0  0  0  0
    6.2225  -12.7917    0.0000 O   0  0  0  0  0  0  0  0  0  0  0  0
   -0.2729  -10.5399    0.0000 C   0  0  0  0  0  0  0  0  0  0  0  0
   -1.5646   -9.7901    0.0000 C   0  0  0  0  0  0  0  0  0  0  0  0
   -2.8680  -10.5337    0.0000 C   0  0  0  0  0  0  0  0  0  0  0  0
   -2.8716  -12.0353    0.0000 C   0  0  0  0  0  0  0  0  0  0  0  0
   -1.5718  -12.7935    0.0000 C   0  0  0  0  0  0  0  0  0  0  0  0
   -4.1642   -9.7788    0.0000 C   0  0  0  0  0  0  0  0  0  0  0  0
   -5.4660  -10.5239    0.0000 C   0  0  0  0  0  0  0  0  0  0  0  0
   -6.7571   -9.7661    0.0000 C   0  0  0  0  0  0  0  0  0  0  0  0
   -8.0582  -10.5099    0.0000 C   0  0  0  0  0  0  0  0  0  0  0  0
   -8.0647  -12.0115    0.0000 C   0  0  0  0  0  0  0  0  0  0  0  0
   -6.7593  -12.7661    0.0000 C   0  0  0  0  0  0  0  0  0  0  0  0
   -5.4636  -12.0179    0.0000 C   0  0  0  0  0  0  0  0  0  0  0  0
  3 13  1  0  0  0  0
  1  2  1  0  0  0  0
  6  7  1  0  0  0  0
  1  4  2  0  0  0  0
  7  8  1  0  0  0  0
  3 17  1  0  0  0  0
 13 14  1  0  0  0  0
 14 15  1  0  0  0  0
 15 16  1  0  0  0  0
 16 17  1  0  0  0  0
  7  9  1  0  0  0  0
 15 18  1  0  0  0  0
  2  5  1  0  0  0  0
 18 19  1  0  0  0  0
  5 10  2  0  0  0  0
 19 20  2  0  0  0  0
  1  3  1  0  0  0  0
 20 21  1  0  0  0  0
  5 11  1  0  0  0  0
 21 22  2  0  0  0  0
  2  6  1  0  0  0  0
 22 23  1  0  0  0  0
 11 12  1  0  0  0  0
 23 24  2  0  0  0  0
 24 19  1  0  0  0  0
M  END
> <Value>
6.3448615651886175

> <Relation>
=

> <SourceURI>
mol:CHEMBL220941

$$$$

Generated by Molecular Materials Informatics

 25 26  0  0  0  0  0  0  0  0999 V2000
    1.3937   -0.7295    0.0000 C   0  0  0  0  0  0  0  0  0  0  0  0
    2.6928    0.0205    0.0000 C   0  0  0  0  0  0  0  0  0  0  0  0
    0.0947    0.0205    0.0000 N   0  0  0  0  0  0  0  0  0  0  0  0
    1.3937   -2.2295    0.0000 O   0  0  0  0  0  0  0  0  0  0  0  0
    3.9917   -0.7295    0.0000 C   0  0  0  0  0  0  0  0  0  0  0  0
    2.6928    1.5205    0.0000 C   0  0  0  0  0  0  0  0  0  0  0  0
    3.9917    2.2704    0.0000 C   0  0  0  0  0  0  0  0  0  0  0  0
    3.9917   -2.2295    0.0000 O   0  0  0  0  0  0  0  0  0  0  0  0
    5.2908    0.0205    0.0000 N   0  0  0  0  0  0  0  0  0  0  0  0
    6.5898   -0.7295    0.0000 O   0  0  0  0  0  0  0  0  0  0  0  0
    5.2902    1.5156    0.0000 C   0  0  0  0  0  0  0  0  0  0  0  0
    6.5882    2.2643    0.0000 C   0  0  0  0  0  0  0  0  0  0  0  0
    6.5891    3.7659    0.0000 C   0  0  0  0  0  0  0  0  0  0  0  0
    5.2809    4.5155    0.0000 C   0  0  0  0  0  0  0  0  0  0  0  0
    3.9882    3.7624    0.0000 C   0  0  0  0  0  0  0  0  0  0  0  0
   -1.2042   -0.7295    0.0000 C   0  0  0  0  0  0  0  0  0  0  0  0
   -2.5033    0.0205    0.0000 C   0  0  0  0  0  0  0  0  0  0  0  0
   -3.8024   -0.7295    0.0000 C   0  0  0  0  0  0  0  0  0  0  0  0
   -5.1014    0.0205    0.0000 C   0  0  0  0  0  0  0  0  0  0  0  0
   -6.4003   -0.7295    0.0000 C   0  0  0  0  0  0  0  0  0  0  0  0
   -7.6979    0.0270    0.0000 C   0  0  0  0  0  0  0  0  0  0  0  0
   -8.9961   -0.7217    0.0000 C   0  0  0  0  0  0  0  0  0  0  0  0
   -8.9968   -2.2233    0.0000 C   0  0  0  0  0  0  0  0  0  0  0  0
   -7.6887   -2.9731    0.0000 C   0  0  0  0  0  0  0  0  0  0  0  0
   -6.3960   -2.2200    0.0000 C   0  0  0  0  0  0  0  0  0  0  0  0
 12 13  2  0  0  0  0
  6  7  1  0  0  0  0
 13 14  1  0  0  0  0
  1  4  2  0  0  0  0
 14 15  2  0  0  0  0
 15  7  1  0  0  0  0
  5  8  2  0  0  0  0
  3 16  1  0  0  0  0
 16 17  1  0  0  0  0
  5  9  1  0  0  0  0
 17 18  1  0  0  0  0
  2  5  1  0  0  0  0
 18 19  1  0  0  0  0
  9 10  1  0  0  0  0
 19 20  1  0  0  0  0
  1  3  1  0  0  0  0
 20 21  2  0  0  0  0
  7 11  2  0  0  0  0
 21 22  1  0  0  0  0
  2  6  1  0  0  0  0
 22 23  2  0  0  0  0
 11 12  1  0  0  0  0
 23 24  1  0  0  0  0
  1  2  1  0  0  0  0
 24 25  2  0  0  0  0
 25 20  1  0  0  0  0
M  END
> <Value>
5.0

> <Relation>
<

> <SourceURI>
mol:CHEMBL220996

$$$$

Generated by Molecular Materials Informatics

 22 22  0  0  0  0  0  0  0  0999 V2000
   12.8229   -6.6909    0.0000 C   0  0  0  0  0  0  0  0  0  0  0  0
   14.1218   -5.9410    0.0000 C   0  0  0  0  0  0  0  0  0  0  0  0
   11.5239   -5.9410    0.0000 N   0  0  0  0  0  0  0  0  0  0  0  0
   12.8229   -8.1909    0.0000 O   0  0  0  0  0  0  0  0  0  0  0  0
   15.4209   -6.6909    0.0000 C   0  0  0  0  0  0  0  0  0  0  0  0
   14.1218   -4.4410    0.0000 C   0  0  0  0  0  0  0  0  0  0  0  0
   15.4209   -3.6910    0.0000 C   0  0  0  0  0  0  0  0  0  0  0  0
   15.4209   -2.1911    0.0000 C   0  0  0  0  0  0  0  0  0  0  0  0
   16.7199   -4.4410    0.0000 C   0  0  0  0  0  0  0  0  0  0  0  0
   15.4209   -8.1909    0.0000 O   0  0  0  0  0  0  0  0  0  0  0  0
   16.7199   -5.9410    0.0000 N   0  0  0  0  0  0  0  0  0  0  0  0
   18.0190   -6.6909    0.0000 O   0  0  0  0  0  0  0  0  0  0  0  0
   10.2248   -6.6909    0.0000 C   0  0  0  0  0  0  0  0  0  0  0  0
    8.9260   -5.9410    0.0000 C   0  0  0  0  0  0  0  0  0  0  0  0
    7.6269   -6.6909    0.0000 C   0  0  0  0  0  0  0  0  0  0  0  0
    6.3279   -5.9410    0.0000 C   0  0  0  0  0  0  0  0  0  0  0  0
    5.0288   -6.6909    0.0000 C   0  0  0  0  0  0  0  0  0  0  0  0
    3.7314   -5.9346    0.0000 C   0  0  0  0  0  0  0  0  0  0  0  0
    2.4332   -6.6833    0.0000 C   0  0  0  0  0  0  0  0  0  0  0  0
    2.4323   -8.1849    0.0000 C   0  0  0  0  0  0  0  0  0  0  0  0
    3.7405   -8.9345    0.0000 C   0  0  0  0  0  0  0  0  0  0  0  0
    5.0334   -8.1816    0.0000 C   0  0  0  0  0  0  0  0  0  0  0  0
  2  6  1  0  0  0  0
 11 12  1  0  0  0  0
  1  2  1  0  0  0  0
  3 13  1  0  0  0  0
  6  7  1  0  0  0  0
 13 14  1  0  0  0  0
  1  4  2  0  0  0  0
 14 15  1  0  0  0  0
  7  8  1  0  0  0  0
 15 16  1  0  0  0  0
 16 17  1  0  0  0  0
  7  9  1  0  0  0  0
 17 18  2  0  0  0  0
  2  5  1  0  0  0  0
 18 19  1  0  0  0  0
  5 10  2  0  0  0  0
 19 20  2  0  0  0  0
  1  3  1  0  0  0  0
 20 21  1  0  0  0  0
  5 11  1  0  0  0  0
 21 22  2  0  0  0  0
 22 17  1  0  0  0  0
M  END
> <Value>
7.086186147616283

> <Relation>
=

> <SourceURI>
mol:CHEMBL220311

$$$$

Generated by Molecular Materials Informatics

 20 20  0  0  0  0  0  0  0  0999 V2000
    7.7827  -19.3458    0.0000 C   0  0  0  0  0  0  0  0  0  0  0  0
    9.0818  -18.5958    0.0000 C   0  0  0  0  0  0  0  0  0  0  0  0
    6.4836  -18.5958    0.0000 N   0  0  0  0  0  0  0  0  0  0  0  0
    7.7827  -20.8458    0.0000 O   0  0  0  0  0  0  0  0  0  0  0  0
   10.3807  -19.3458    0.0000 C   0  0  0  0  0  0  0  0  0  0  0  0
    9.0818  -17.0958    0.0000 C   0  0  0  0  0  0  0  0  0  0  0  0
   10.3807  -16.3458    0.0000 C   0  0  0  0  0  0  0  0  0  0  0  0
   10.3807  -14.8458    0.0000 C   0  0  0  0  0  0  0  0  0  0  0  0
   11.6798  -17.0958    0.0000 C   0  0  0  0  0  0  0  0  0  0  0  0
   10.3807  -20.8458    0.0000 O   0  0  0  0  0  0  0  0  0  0  0  0
   11.6798  -18.5958    0.0000 N   0  0  0  0  0  0  0  0  0  0  0  0
   12.9789  -19.3458    0.0000 O   0  0  0  0  0  0  0  0  0  0  0  0
    5.1847  -19.3458    0.0000 C   0  0  0  0  0  0  0  0  0  0  0  0
    3.8856  -18.5958    0.0000 C   0  0  0  0  0  0  0  0  0  0  0  0
    3.8951  -17.0940    0.0000 C   0  0  0  0  0  0  0  0  0  0  0  0
    2.5976  -16.3440    0.0000 C   0  0  0  0  0  0  0  0  0  0  0  0
    1.2967  -17.0942    0.0000 C   0  0  0  0  0  0  0  0  0  0  0  0
    1.3015  -18.6020    0.0000 C   0  0  0  0  0  0  0  0  0  0  0  0
    2.6002  -19.3449    0.0000 C   0  0  0  0  0  0  0  0  0  0  0  0
   -0.0033  -16.3458    0.0000 Cl  0  0  0  0  0  0  0  0  0  0  0  0
  1  3  1  0  0  0  0
  5 11  1  0  0  0  0
  2  6  1  0  0  0  0
 11 12  1  0  0  0  0
  1  2  1  0  0  0  0
  3 13  1  0  0  0  0
  6  7  1  0  0  0  0
 13 14  1  0  0  0  0
  1  4  2  0  0  0  0
 14 15  2  0  0  0  0
  7  8  1  0  0  0  0
 15 16  1  0  0  0  0
 16 17  2  0  0  0  0
  7  9  1  0  0  0  0
 17 18  1  0  0  0  0
  2  5  1  0  0  0  0
 18 19  2  0  0  0  0
 19 14  1  0  0  0  0
  5 10  2  0  0  0  0
 17 20  1  0  0  0  0
M  END
> <Value>
5.598599459218456

> <Relation>
=

> <SourceURI>
mol:CHEMBL220176

$$$$

Generated by Molecular Materials Informatics

 29 31  0  0  0  0  0  0  0  0999 V2000
   -2.6029   -1.2801    0.0000 C   0  0  0  0  0  0  0  0  0  0  0  0
   -1.3039   -0.5301    0.0000 C   0  0  0  0  0  0  0  0  0  0  0  0
   -3.9020   -0.5301    0.0000 N   0  0  0  0  0  0  0  0  0  0  0  0
   -2.6029   -2.7800    0.0000 O   0  0  0  0  0  0  0  0  0  0  0  0
   -0.0050   -1.2801    0.0000 C   0  0  0  0  0  0  0  0  0  0  0  0
   -1.3039    0.9698    0.0000 C   0  0  0  0  0  0  0  0  0  0  0  0
   -0.0050    1.7198    0.0000 C   0  0  0  0  0  0  0  0  0  0  0  0
   -0.0050   -2.7800    0.0000 O   0  0  0  0  0  0  0  0  0  0  0  0
    1.2940   -0.5301    0.0000 N   0  0  0  0  0  0  0  0  0  0  0  0
    2.5931   -1.2801    0.0000 O   0  0  0  0  0  0  0  0  0  0  0  0
   -5.2009   -1.2801    0.0000 C   0  0  0  0  0  0  0  0  0  0  0  0
   -6.4999   -0.5301    0.0000 C   0  0  0  0  0  0  0  0  0  0  0  0
   -6.4904    0.9718    0.0000 C   0  0  0  0  0  0  0  0  0  0  0  0
   -7.7879    1.7216    0.0000 C   0  0  0  0  0  0  0  0  0  0  0  0
   -9.0887    0.9715    0.0000 C   0  0  0  0  0  0  0  0  0  0  0  0
   -9.0840   -0.5361    0.0000 C   0  0  0  0  0  0  0  0  0  0  0  0
   -7.7853   -1.2792    0.0000 C   0  0  0  0  0  0  0  0  0  0  0  0
    1.2935    0.9648    0.0000 C   0  0  0  0  0  0  0  0  0  0  0  0
    2.5915    1.7136    0.0000 C   0  0  0  0  0  0  0  0  0  0  0  0
    2.5924    3.2150    0.0000 C   0  0  0  0  0  0  0  0  0  0  0  0
    1.2842    3.9648    0.0000 C   0  0  0  0  0  0  0  0  0  0  0  0
   -0.0085    3.2118    0.0000 C   0  0  0  0  0  0  0  0  0  0  0  0
    3.8901    0.9629    0.0000 O   0  0  0  0  0  0  0  0  0  0  0  0
    5.1896    1.7124    0.0000 C   0  0  0  0  0  0  0  0  0  0  0  0
    6.4850    0.9522    0.0000 C   0  0  0  0  0  0  0  0  0  0  0  0
    7.7835    1.7002    0.0000 C   0  0  0  0  0  0  0  0  0  0  0  0
    7.7849    3.2018    0.0000 C   0  0  0  0  0  0  0  0  0  0  0  0
    6.4772    3.9521    0.0000 C   0  0  0  0  0  0  0  0  0  0  0  0
    5.1841    3.1998    0.0000 C   0  0  0  0  0  0  0  0  0  0  0  0
 14 15  2  0  0  0  0
  5  8  2  0  0  0  0
 15 16  1  0  0  0  0
 16 17  2  0  0  0  0
 17 12  1  0  0  0  0
  5  9  1  0  0  0  0
  7 18  2  0  0  0  0
  2  5  1  0  0  0  0
 18 19  1  0  0  0  0
  9 10  1  0  0  0  0
 19 20  2  0  0  0  0
  1  3  1  0  0  0  0
 20 21  1  0  0  0  0
  3 11  1  0  0  0  0
 21 22  2  0  0  0  0
 22  7  1  0  0  0  0
  2  6  1  0  0  0  0
 19 23  1  0  0  0  0
 11 12  1  0  0  0  0
 23 24  1  0  0  0  0
  1  2  1  0  0  0  0
 24 25  2  0  0  0  0
 12 13  2  0  0  0  0
 25 26  1  0  0  0  0
  6  7  1  0  0  0  0
 26 27  2  0  0  0  0
 13 14  1  0  0  0  0
 27 28  1  0  0  0  0
  1  4  2  0  0  0  0
 28 29  2  0  0  0  0
 29 24  1  0  0  0  0
M  END
> <Value>
5.0

> <Relation>
<

> <SourceURI>
mol:CHEMBL220364

$$$$

Generated by Molecular Materials Informatics

 28 28  0  0  0  0  0  0  0  0999 V2000
    4.8925   -7.0842    0.0000 C   0  0  0  0  0  0  0  0  0  0  0  0
    6.1913   -6.3342    0.0000 C   0  0  0  0  0  0  0  0  0  0  0  0
    7.4904   -7.0842    0.0000 C   0  0  0  0  0  0  0  0  0  0  0  0
    8.7895   -6.3342    0.0000 C   0  0  0  0  0  0  0  0  0  0  0  0
    7.4904   -8.5841    0.0000 N   0  0  0  0  0  0  0  0  0  0  0  0
   10.0886   -7.0842    0.0000 N   0  0  0  0  0  0  0  0  0  0  0  0
   11.3874   -6.3342    0.0000 C   0  0  0  0  0  0  0  0  0  0  0  0
   12.6865   -7.0842    0.0000 C   0  0  0  0  0  0  0  0  0  0  0  0
   13.9856   -6.3342    0.0000 N   0  0  0  0  0  0  0  0  0  0  0  0
   15.2845   -7.0842    0.0000 C   0  0  0  0  0  0  0  0  0  0  0  0
   16.5835   -6.3342    0.0000 N   0  0  0  0  0  0  0  0  0  0  0  0
   15.2845   -8.5841    0.0000 O   0  0  0  0  0  0  0  0  0  0  0  0
   11.3874   -4.8342    0.0000 O   0  0  0  0  0  0  0  0  0  0  0  0
   12.6858   -8.5831    0.0000 C   0  0  0  0  0  0  0  0  0  0  0  0
    3.5943   -6.3289    0.0000 C   0  0  0  0  0  0  0  0  0  0  0  0
    2.2961   -7.0776    0.0000 C   0  0  0  0  0  0  0  0  0  0  0  0
    2.2952   -8.5792    0.0000 C   0  0  0  0  0  0  0  0  0  0  0  0
    3.6034   -9.3289    0.0000 C   0  0  0  0  0  0  0  0  0  0  0  0
    4.8963   -8.5758    0.0000 C   0  0  0  0  0  0  0  0  0  0  0  0
   11.3865   -9.3325    0.0000 S   0  0  0  0  0  0  0  0  0  0  0  0
   17.8826   -7.0842    0.0000 C   0  0  0  0  0  0  0  0  0  0  0  0
   19.1815   -6.3342    0.0000 C   0  0  0  0  0  0  0  0  0  0  0  0
   17.8826   -8.5841    0.0000 C   0  0  0  0  0  0  0  0  0  0  0  0
   20.4866   -7.0784    0.0000 O   0  0  0  0  0  0  0  0  0  0  0  0
   19.1875   -4.8284    0.0000 O   0  0  0  0  0  0  0  0  0  0  0  0
   19.1815   -9.3341    0.0000 C   0  0  0  0  0  0  0  0  0  0  0  0
   19.1750  -10.8361    0.0000 C   0  0  0  0  0  0  0  0  0  0  0  0
   16.5835   -9.3341    0.0000 C   0  0  0  0  0  0  0  0  0  0  0  0
  3  4  1  0  0  0  0
  1 15  2  0  0  0  0
  7  8  1  0  0  0  0
 15 16  1  0  0  0  0
 16 17  2  0  0  0  0
  8  9  1  0  0  0  0
 17 18  1  0  0  0  0
  3  5  1  6  0  0  0
 18 19  2  0  0  0  0
 19  1  1  0  0  0  0
  9 10  1  0  0  0  0
 14 20  1  0  0  0  0
  2  3  1  0  0  0  0
 11 21  1  0  0  0  0
 10 11  1  0  0  0  0
 21 22  1  6  0  0  0
  4  6  1  0  0  0  0
 21 23  1  0  0  0  0
 10 12  2  0  0  0  0
  1  2  1  0  0  0  0
 22 24  1  0  0  0  0
 22 25  2  0  0  0  0
  7 13  2  0  0  0  0
 23 26  1  0  0  0  0
  6  7  1  0  0  0  0
 26 27  1  0  0  0  0
  8 14  1  1  0  0  0
 23 28  1  6  0  0  0
M  END
> <Value>
4.8298691992893295

> <Error>
2.6182936857388484E-4

> <Relation>
=

> <SourceURI>
mol:CHEMBL516392

$$$$

Generated by Molecular Materials Informatics

 27 27  0  0  0  0  0  0  0  0999 V2000
   -7.1826  -11.6013    0.0000 C   0  0  0  0  0  0  0  0  0  0  0  0
   -5.8837  -10.8513    0.0000 C   0  0  0  0  0  0  0  0  0  0  0  0
   -4.5846  -11.6013    0.0000 C   0  0  0  0  0  0  0  0  0  0  0  0
   -3.2856  -10.8513    0.0000 C   0  0  0  0  0  0  0  0  0  0  0  0
   -4.5846  -13.1013    0.0000 N   0  0  0  0  0  0  0  0  0  0  0  0
   -1.9865  -11.6013    0.0000 N   0  0  0  0  0  0  0  0  0  0  0  0
   -0.6876  -10.8513    0.0000 C   0  0  0  0  0  0  0  0  0  0  0  0
    0.6115  -11.6013    0.0000 C   0  0  0  0  0  0  0  0  0  0  0  0
    1.9106  -10.8513    0.0000 N   0  0  0  0  0  0  0  0  0  0  0  0
    3.2095  -11.6013    0.0000 C   0  0  0  0  0  0  0  0  0  0  0  0
    4.5086  -10.8513    0.0000 N   0  0  0  0  0  0  0  0  0  0  0  0
    3.2095  -13.1013    0.0000 O   0  0  0  0  0  0  0  0  0  0  0  0
   -0.6876   -9.3513    0.0000 O   0  0  0  0  0  0  0  0  0  0  0  0
    0.6108  -13.1000    0.0000 C   0  0  0  0  0  0  0  0  0  0  0  0
   -8.4808  -10.8460    0.0000 C   0  0  0  0  0  0  0  0  0  0  0  0
   -9.7790  -11.5948    0.0000 C   0  0  0  0  0  0  0  0  0  0  0  0
   -9.7799  -13.0962    0.0000 C   0  0  0  0  0  0  0  0  0  0  0  0
   -8.4717  -13.8460    0.0000 C   0  0  0  0  0  0  0  0  0  0  0  0
   -7.1788  -13.0929    0.0000 C   0  0  0  0  0  0  0  0  0  0  0  0
   -0.6885  -13.8495    0.0000 S   0  0  0  0  0  0  0  0  0  0  0  0
    5.8077  -11.6013    0.0000 C   0  0  0  0  0  0  0  0  0  0  0  0
    7.1066  -10.8513    0.0000 C   0  0  0  0  0  0  0  0  0  0  0  0
    5.8077  -13.1013    0.0000 C   0  0  0  0  0  0  0  0  0  0  0  0
    8.4117  -11.5955    0.0000 O   0  0  0  0  0  0  0  0  0  0  0  0
    7.1126   -9.3455    0.0000 O   0  0  0  0  0  0  0  0  0  0  0  0
    7.1066  -13.8513    0.0000 C   0  0  0  0  0  0  0  0  0  0  0  0
    4.5086  -13.8513    0.0000 C   0  0  0  0  0  0  0  0  0  0  0  0
  8 14  1  1  0  0  0
  3  4  1  0  0  0  0
  1 15  2  0  0  0  0
  7  8  1  0  0  0  0
 15 16  1  0  0  0  0
 16 17  2  0  0  0  0
  8  9  1  0  0  0  0
 17 18  1  0  0  0  0
  3  5  1  6  0  0  0
 18 19  2  0  0  0  0
 19  1  1  0  0  0  0
  9 10  1  0  0  0  0
 14 20  1  0  0  0  0
  2  3  1  0  0  0  0
 11 21  1  0  0  0  0
 10 11  1  0  0  0  0
 21 22  1  0  0  0  0
  4  6  1  0  0  0  0
 21 23  1  6  0  0  0
 10 12  2  0  0  0  0
  1  2  1  0  0  0  0
 22 24  1  0  0  0  0
 22 25  2  0  0  0  0
  7 13  2  0  0  0  0
 23 26  1  0  0  0  0
  6  7  1  0  0  0  0
 23 27  1  0  0  0  0
M  END
> <Value>
4.23031132049846

> <Error>
6.22706850802679E-4

> <Relation>
=

> <SourceURI>
mol:CHEMBL525057

$$$$

Generated by Molecular Materials Informatics

 25 25  0  0  0  0  0  0  0  0999 V2000
    4.0384  -11.3546    0.0000 C   0  0  0  0  0  0  0  0  0  0  0  0
    5.3375  -10.6046    0.0000 C   0  0  0  0  0  0  0  0  0  0  0  0
    6.6365  -11.3546    0.0000 C   0  0  0  0  0  0  0  0  0  0  0  0
    7.9354  -10.6046    0.0000 C   0  0  0  0  0  0  0  0  0  0  0  0
    6.6365  -12.8546    0.0000 N   0  0  0  0  0  0  0  0  0  0  0  0
    9.2344  -11.3546    0.0000 N   0  0  0  0  0  0  0  0  0  0  0  0
   10.5335  -10.6046    0.0000 C   0  0  0  0  0  0  0  0  0  0  0  0
   11.8325  -11.3546    0.0000 C   0  0  0  0  0  0  0  0  0  0  0  0
   13.1314  -10.6046    0.0000 N   0  0  0  0  0  0  0  0  0  0  0  0
   14.4305  -11.3546    0.0000 C   0  0  0  0  0  0  0  0  0  0  0  0
   14.4305  -12.8546    0.0000 O   0  0  0  0  0  0  0  0  0  0  0  0
   10.5335   -9.1047    0.0000 O   0  0  0  0  0  0  0  0  0  0  0  0
   11.8318  -12.8533    0.0000 C   0  0  0  0  0  0  0  0  0  0  0  0
    2.7403  -10.5992    0.0000 C   0  0  0  0  0  0  0  0  0  0  0  0
    1.4421  -11.3479    0.0000 C   0  0  0  0  0  0  0  0  0  0  0  0
    1.4414  -12.8495    0.0000 C   0  0  0  0  0  0  0  0  0  0  0  0
    2.7495  -13.5993    0.0000 C   0  0  0  0  0  0  0  0  0  0  0  0
    4.0422  -12.8462    0.0000 C   0  0  0  0  0  0  0  0  0  0  0  0
   10.5326  -13.6027    0.0000 S   0  0  0  0  0  0  0  0  0  0  0  0
   15.7295  -10.6046    0.0000 C   0  0  0  0  0  0  0  0  0  0  0  0
   17.0284  -11.3546    0.0000 C   0  0  0  0  0  0  0  0  0  0  0  0
   18.3274  -10.6046    0.0000 C   0  0  0  0  0  0  0  0  0  0  0  0
   19.6265  -11.3546    0.0000 C   0  0  0  0  0  0  0  0  0  0  0  0
   20.9255  -10.6046    0.0000 C   0  0  0  0  0  0  0  0  0  0  0  0
   22.2244  -11.3546    0.0000 N   0  0  0  0  0  0  0  0  0  0  0  0
  8 13  1  1  0  0  0
  6  7  1  0  0  0  0
  1 14  2  0  0  0  0
  3  4  1  0  0  0  0
 14 15  1  0  0  0  0
  7  8  1  0  0  0  0
 15 16  2  0  0  0  0
 16 17  1  0  0  0  0
  8  9  1  0  0  0  0
 17 18  2  0  0  0  0
 18  1  1  0  0  0  0
  3  5  1  6  0  0  0
 13 19  1  0  0  0  0
  9 10  1  0  0  0  0
 10 20  1  0  0  0  0
  2  3  1  0  0  0  0
 20 21  1  0  0  0  0
 10 11  2  0  0  0  0
 21 22  1  0  0  0  0
  4  6  1  0  0  0  0
 22 23  1  0  0  0  0
  7 12  2  0  0  0  0
 23 24  1  0  0  0  0
  1  2  1  0  0  0  0
 24 25  1  0  0  0  0
M  END
> <Value>
3.6918947506669078

> <Error>
0.0037894823306614533

> <Relation>
=

> <SourceURI>
mol:CHEMBL475025

$$$$

Generated by Molecular Materials Informatics

 27 28  0  0  0  0  0  0  0  0999 V2000
   -7.0431  -16.4888    0.0000 C   0  0  0  0  0  0  0  0  0  0  0  0
   -5.7442  -15.7388    0.0000 C   0  0  0  0  0  0  0  0  0  0  0  0
   -4.4451  -16.4888    0.0000 C   0  0  0  0  0  0  0  0  0  0  0  0
   -3.1460  -15.7388    0.0000 C   0  0  0  0  0  0  0  0  0  0  0  0
   -4.4451  -17.9888    0.0000 N   0  0  0  0  0  0  0  0  0  0  0  0
   -1.8470  -16.4888    0.0000 N   0  0  0  0  0  0  0  0  0  0  0  0
   -0.5480  -15.7388    0.0000 C   0  0  0  0  0  0  0  0  0  0  0  0
    0.7510  -16.4888    0.0000 C   0  0  0  0  0  0  0  0  0  0  0  0
    2.0501  -15.7388    0.0000 N   0  0  0  0  0  0  0  0  0  0  0  0
    3.3490  -16.4888    0.0000 C   0  0  0  0  0  0  0  0  0  0  0  0
    3.3490  -17.9888    0.0000 O   0  0  0  0  0  0  0  0  0  0  0  0
   -0.5480  -14.2388    0.0000 O   0  0  0  0  0  0  0  0  0  0  0  0
    0.7503  -17.9877    0.0000 C   0  0  0  0  0  0  0  0  0  0  0  0
   -8.3413  -15.7335    0.0000 C   0  0  0  0  0  0  0  0  0  0  0  0
   -9.6395  -16.4823    0.0000 C   0  0  0  0  0  0  0  0  0  0  0  0
   -9.6404  -17.9839    0.0000 C   0  0  0  0  0  0  0  0  0  0  0  0
   -8.3322  -18.7335    0.0000 C   0  0  0  0  0  0  0  0  0  0  0  0
   -7.0393  -17.9804    0.0000 C   0  0  0  0  0  0  0  0  0  0  0  0
   -0.5490  -18.7372    0.0000 S   0  0  0  0  0  0  0  0  0  0  0  0
    4.6481  -15.7388    0.0000 C   0  0  0  0  0  0  0  0  0  0  0  0
    5.9454  -16.4959    0.0000 C   0  0  0  0  0  0  0  0  0  0  0  0
    7.2436  -15.7472    0.0000 C   0  0  0  0  0  0  0  0  0  0  0  0
    7.2443  -14.2455    0.0000 C   0  0  0  0  0  0  0  0  0  0  0  0
    5.9361  -13.4959    0.0000 C   0  0  0  0  0  0  0  0  0  0  0  0
    4.6434  -14.2490    0.0000 C   0  0  0  0  0  0  0  0  0  0  0  0
    5.9416  -17.9959    0.0000 Cl  0  0  0  0  0  0  0  0  0  0  0  0
    8.5423  -13.4937    0.0000 Cl  0  0  0  0  0  0  0  0  0  0  0  0
  1 14  2  0  0  0  0
  3  4  1  0  0  0  0
 14 15  1  0  0  0  0
  7  8  1  0  0  0  0
 15 16  2  0  0  0  0
 16 17  1  0  0  0  0
  8  9  1  0  0  0  0
 17 18  2  0  0  0  0
 18  1  1  0  0  0  0
  3  5  1  6  0  0  0
 13 19  1  0  0  0  0
  9 10  1  0  0  0  0
 10 20  1  0  0  0  0
  2  3  1  0  0  0  0
 20 21  2  0  0  0  0
 10 11  2  0  0  0  0
 21 22  1  0  0  0  0
  4  6  1  0  0  0  0
 22 23  2  0  0  0  0
  7 12  2  0  0  0  0
 23 24  1  0  0  0  0
  1  2  1  0  0  0  0
 24 25  2  0  0  0  0
 25 20  1  0  0  0  0
  8 13  1  1  0  0  0
 21 26  1  0  0  0  0
  6  7  1  0  0  0  0
 23 27  1  0  0  0  0
M  END
> <Value>
2.9796350271377

> <Error>
7.299441078290059E-4

> <Relation>
=

> <SourceURI>
mol:CHEMBL493147

$$$$

Generated by Molecular Materials Informatics

 30 30  0  0  0  0  0  0  0  0999 V2000
    4.4549  -15.2676    0.0000 C   0  0  0  0  0  0  0  0  0  0  0  0
    5.7538  -14.5176    0.0000 C   0  0  0  0  0  0  0  0  0  0  0  0
    7.0529  -15.2676    0.0000 C   0  0  0  0  0  0  0  0  0  0  0  0
    8.3520  -14.5176    0.0000 C   0  0  0  0  0  0  0  0  0  0  0  0
    7.0529  -16.7676    0.0000 N   0  0  0  0  0  0  0  0  0  0  0  0
    9.6510  -15.2676    0.0000 N   0  0  0  0  0  0  0  0  0  0  0  0
   10.9499  -14.5176    0.0000 C   0  0  0  0  0  0  0  0  0  0  0  0
   12.2490  -15.2676    0.0000 C   0  0  0  0  0  0  0  0  0  0  0  0
   13.5481  -14.5176    0.0000 N   0  0  0  0  0  0  0  0  0  0  0  0
   14.8470  -15.2676    0.0000 C   0  0  0  0  0  0  0  0  0  0  0  0
   16.1461  -14.5176    0.0000 N   0  0  0  0  0  0  0  0  0  0  0  0
   14.8470  -16.7676    0.0000 O   0  0  0  0  0  0  0  0  0  0  0  0
   10.9499  -13.0176    0.0000 O   0  0  0  0  0  0  0  0  0  0  0  0
   12.2483  -16.7664    0.0000 C   0  0  0  0  0  0  0  0  0  0  0  0
    3.1567  -14.5122    0.0000 C   0  0  0  0  0  0  0  0  0  0  0  0
    1.8585  -15.2609    0.0000 C   0  0  0  0  0  0  0  0  0  0  0  0
    1.8576  -16.7625    0.0000 C   0  0  0  0  0  0  0  0  0  0  0  0
    3.1658  -17.5124    0.0000 C   0  0  0  0  0  0  0  0  0  0  0  0
    4.4587  -16.7593    0.0000 C   0  0  0  0  0  0  0  0  0  0  0  0
   17.4452  -15.2676    0.0000 C   0  0  0  0  0  0  0  0  0  0  0  0
   18.7441  -14.5176    0.0000 C   0  0  0  0  0  0  0  0  0  0  0  0
   17.4452  -16.7676    0.0000 C   0  0  0  0  0  0  0  0  0  0  0  0
   20.0492  -15.2616    0.0000 O   0  0  0  0  0  0  0  0  0  0  0  0
   18.7501  -13.0116    0.0000 O   0  0  0  0  0  0  0  0  0  0  0  0
   18.7441  -17.5176    0.0000 C   0  0  0  0  0  0  0  0  0  0  0  0
   18.7376  -19.0195    0.0000 C   0  0  0  0  0  0  0  0  0  0  0  0
   16.1461  -17.5176    0.0000 C   0  0  0  0  0  0  0  0  0  0  0  0
   10.9490  -17.5158    0.0000 C   0  0  0  0  0  0  0  0  0  0  0  0
   10.9485  -19.0158    0.0000 C   0  0  0  0  0  0  0  0  0  0  0  0
    9.6503  -16.7653    0.0000 C   0  0  0  0  0  0  0  0  0  0  0  0
  7  8  1  0  0  0  0
 15 16  1  0  0  0  0
 16 17  2  0  0  0  0
  8  9  1  0  0  0  0
 17 18  1  0  0  0  0
  3  5  1  6  0  0  0
 18 19  2  0  0  0  0
 19  1  1  0  0  0  0
  9 10  1  0  0  0  0
 11 20  1  0  0  0  0
  2  3  1  0  0  0  0
 20 21  1  6  0  0  0
 10 11  1  0  0  0  0
 20 22  1  0  0  0  0
  4  6  1  0  0  0  0
 10 12  2  0  0  0  0
 21 23  1  0  0  0  0
 21 24  2  0  0  0  0
  1  2  1  0  0  0  0
 22 25  1  0  0  0  0
  7 13  2  0  0  0  0
 25 26  1  0  0  0  0
  6  7  1  0  0  0  0
 22 27  1  6  0  0  0
  8 14  1  1  0  0  0
 14 28  1  0  0  0  0
  3  4  1  0  0  0  0
 28 29  1  0  0  0  0
  1 15  2  0  0  0  0
 28 30  1  0  0  0  0
M  END
> <Value>
3.830456819519468

> <Error>
9.136459870178193E-4

> <Relation>
=

> <SourceURI>
mol:CHEMBL493148

$$$$

Generated by Molecular Materials Informatics

 30 30  0  0  0  0  0  0  0  0999 V2000
   -6.6992  -20.0717    0.0000 C   0  0  0  0  0  0  0  0  0  0  0  0
   -5.4001  -19.3217    0.0000 C   0  0  0  0  0  0  0  0  0  0  0  0
   -4.1013  -20.0717    0.0000 C   0  0  0  0  0  0  0  0  0  0  0  0
   -2.8022  -19.3217    0.0000 C   0  0  0  0  0  0  0  0  0  0  0  0
   -4.1013  -21.5716    0.0000 N   0  0  0  0  0  0  0  0  0  0  0  0
   -1.5032  -20.0717    0.0000 N   0  0  0  0  0  0  0  0  0  0  0  0
   -0.2041  -19.3217    0.0000 C   0  0  0  0  0  0  0  0  0  0  0  0
    1.0948  -20.0717    0.0000 C   0  0  0  0  0  0  0  0  0  0  0  0
    2.3938  -19.3217    0.0000 N   0  0  0  0  0  0  0  0  0  0  0  0
    3.6929  -20.0717    0.0000 C   0  0  0  0  0  0  0  0  0  0  0  0
    4.9917  -19.3217    0.0000 N   0  0  0  0  0  0  0  0  0  0  0  0
    3.6929  -21.5716    0.0000 O   0  0  0  0  0  0  0  0  0  0  0  0
   -0.2041  -17.8217    0.0000 O   0  0  0  0  0  0  0  0  0  0  0  0
    1.0942  -21.5705    0.0000 C   0  0  0  0  0  0  0  0  0  0  0  0
   -7.9973  -19.3164    0.0000 C   0  0  0  0  0  0  0  0  0  0  0  0
   -9.2955  -20.0651    0.0000 C   0  0  0  0  0  0  0  0  0  0  0  0
   -9.2962  -21.5667    0.0000 C   0  0  0  0  0  0  0  0  0  0  0  0
   -7.9881  -22.3163    0.0000 C   0  0  0  0  0  0  0  0  0  0  0  0
   -6.6954  -21.5633    0.0000 C   0  0  0  0  0  0  0  0  0  0  0  0
    6.2908  -20.0717    0.0000 C   0  0  0  0  0  0  0  0  0  0  0  0
    7.5898  -19.3217    0.0000 C   0  0  0  0  0  0  0  0  0  0  0  0
    6.2908  -21.5716    0.0000 C   0  0  0  0  0  0  0  0  0  0  0  0
    8.8947  -20.0659    0.0000 O   0  0  0  0  0  0  0  0  0  0  0  0
    7.5956  -17.8159    0.0000 O   0  0  0  0  0  0  0  0  0  0  0  0
    7.5898  -22.3216    0.0000 C   0  0  0  0  0  0  0  0  0  0  0  0
    7.5833  -23.8236    0.0000 C   0  0  0  0  0  0  0  0  0  0  0  0
   -0.2052  -22.3200    0.0000 C   0  0  0  0  0  0  0  0  0  0  0  0
   -0.2057  -23.8199    0.0000 C   0  0  0  0  0  0  0  0  0  0  0  0
   -1.5039  -21.5695    0.0000 C   0  0  0  0  0  0  0  0  0  0  0  0
    8.8905  -21.5745    0.0000 C   0  0  0  0  0  0  0  0  0  0  0  0
  7  8  1  0  0  0  0
 15 16  1  0  0  0  0
 16 17  2  0  0  0  0
  8  9  1  0  0  0  0
 17 18  1  0  0  0  0
  3  5  1  6  0  0  0
 18 19  2  0  0  0  0
 19  1  1  0  0  0  0
  9 10  1  0  0  0  0
 11 20  1  0  0  0  0
  2  3  1  0  0  0  0
 20 21  1  0  0  0  0
 10 11  1  0  0  0  0
 20 22  1  6  0  0  0
  4  6  1  0  0  0  0
 10 12  2  0  0  0  0
 21 23  1  0  0  0  0
 21 24  2  0  0  0  0
  1  2  1  0  0  0  0
 22 25  1  0  0  0  0
  7 13  2  0  0  0  0
 25 26  1  0  0  0  0
  6  7  1  0  0  0  0
 14 27  1  0  0  0  0
  8 14  1  1  0  0  0
 27 28  1  0  0  0  0
  3  4  1  0  0  0  0
 27 29  1  0  0  0  0
  1 15  2  0  0  0  0
 25 30  1  0  0  0  0
M  END
> <Value>
3.8487029678960534

> <Error>
0.0025940916470461595

> <Relation>
=

> <SourceURI>
mol:CHEMBL522162

$$$$

Generated by Molecular Materials Informatics

 27 27  0  0  0  0  0  0  0  0999 V2000
    4.6424  -20.3225    0.0000 C   0  0  0  0  0  0  0  0  0  0  0  0
    5.9413  -19.5725    0.0000 C   0  0  0  0  0  0  0  0  0  0  0  0
    7.2404  -20.3225    0.0000 C   0  0  0  0  0  0  0  0  0  0  0  0
    8.5394  -19.5725    0.0000 C   0  0  0  0  0  0  0  0  0  0  0  0
    7.2404  -21.8225    0.0000 N   0  0  0  0  0  0  0  0  0  0  0  0
    9.8385  -20.3225    0.0000 N   0  0  0  0  0  0  0  0  0  0  0  0
   11.1374  -19.5725    0.0000 C   0  0  0  0  0  0  0  0  0  0  0  0
   12.4365  -20.3225    0.0000 C   0  0  0  0  0  0  0  0  0  0  0  0
   13.7356  -19.5725    0.0000 N   0  0  0  0  0  0  0  0  0  0  0  0
   15.0345  -20.3225    0.0000 C   0  0  0  0  0  0  0  0  0  0  0  0
   16.3336  -19.5725    0.0000 N   0  0  0  0  0  0  0  0  0  0  0  0
   15.0345  -21.8225    0.0000 O   0  0  0  0  0  0  0  0  0  0  0  0
   11.1374  -18.0725    0.0000 O   0  0  0  0  0  0  0  0  0  0  0  0
   12.4358  -21.8214    0.0000 C   0  0  0  0  0  0  0  0  0  0  0  0
    3.3442  -19.5672    0.0000 C   0  0  0  0  0  0  0  0  0  0  0  0
    2.0460  -20.3159    0.0000 C   0  0  0  0  0  0  0  0  0  0  0  0
    2.0451  -21.8176    0.0000 C   0  0  0  0  0  0  0  0  0  0  0  0
    3.3533  -22.5672    0.0000 C   0  0  0  0  0  0  0  0  0  0  0  0
    4.6462  -21.8141    0.0000 C   0  0  0  0  0  0  0  0  0  0  0  0
   17.6327  -20.3225    0.0000 C   0  0  0  0  0  0  0  0  0  0  0  0
   18.9316  -19.5725    0.0000 C   0  0  0  0  0  0  0  0  0  0  0  0
   17.6327  -21.8225    0.0000 C   0  0  0  0  0  0  0  0  0  0  0  0
   20.2367  -20.3167    0.0000 O   0  0  0  0  0  0  0  0  0  0  0  0
   18.9376  -18.0667    0.0000 O   0  0  0  0  0  0  0  0  0  0  0  0
   11.1365  -22.5708    0.0000 C   0  0  0  0  0  0  0  0  0  0  0  0
   11.1360  -24.0708    0.0000 C   0  0  0  0  0  0  0  0  0  0  0  0
    9.8378  -21.8203    0.0000 C   0  0  0  0  0  0  0  0  0  0  0  0
  8 14  1  1  0  0  0
  3  4  1  0  0  0  0
  1 15  2  0  0  0  0
  7  8  1  0  0  0  0
 15 16  1  0  0  0  0
 16 17  2  0  0  0  0
  8  9  1  0  0  0  0
 17 18  1  0  0  0  0
  3  5  1  6  0  0  0
 18 19  2  0  0  0  0
 19  1  1  0  0  0  0
  9 10  1  0  0  0  0
 11 20  1  0  0  0  0
  2  3  1  0  0  0  0
 20 21  1  0  0  0  0
 10 11  1  0  0  0  0
 20 22  1  6  0  0  0
  4  6  1  0  0  0  0
 10 12  2  0  0  0  0
 21 23  1  0  0  0  0
 21 24  2  0  0  0  0
  1  2  1  0  0  0  0
 14 25  1  0  0  0  0
  7 13  2  0  0  0  0
 25 26  1  0  0  0  0
  6  7  1  0  0  0  0
 25 27  1  0  0  0  0
M  END
> <Value>
3.2813728437220724

> <Error>
0.002745687030755839

> <Relation>
=

> <SourceURI>
mol:CHEMBL493149

$$$$

Generated by Molecular Materials Informatics

 26 26  0  0  0  0  0  0  0  0999 V2000
   -6.3160  -24.5725    0.0000 C   0  0  0  0  0  0  0  0  0  0  0  0
   -5.0170  -23.8225    0.0000 C   0  0  0  0  0  0  0  0  0  0  0  0
   -3.7179  -24.5725    0.0000 C   0  0  0  0  0  0  0  0  0  0  0  0
   -2.4190  -23.8225    0.0000 C   0  0  0  0  0  0  0  0  0  0  0  0
   -3.7179  -26.0725    0.0000 N   0  0  0  0  0  0  0  0  0  0  0  0
   -1.1199  -24.5725    0.0000 N   0  0  0  0  0  0  0  0  0  0  0  0
    0.1791  -23.8225    0.0000 C   0  0  0  0  0  0  0  0  0  0  0  0
    1.4782  -24.5725    0.0000 C   0  0  0  0  0  0  0  0  0  0  0  0
    2.7771  -23.8225    0.0000 N   0  0  0  0  0  0  0  0  0  0  0  0
    4.0762  -24.5725    0.0000 C   0  0  0  0  0  0  0  0  0  0  0  0
    5.3752  -23.8225    0.0000 N   0  0  0  0  0  0  0  0  0  0  0  0
    4.0762  -26.0725    0.0000 O   0  0  0  0  0  0  0  0  0  0  0  0
    0.1791  -22.3225    0.0000 O   0  0  0  0  0  0  0  0  0  0  0  0
    1.4775  -26.0714    0.0000 C   0  0  0  0  0  0  0  0  0  0  0  0
   -7.6142  -23.8172    0.0000 C   0  0  0  0  0  0  0  0  0  0  0  0
   -8.9123  -24.5659    0.0000 C   0  0  0  0  0  0  0  0  0  0  0  0
   -8.9131  -26.0676    0.0000 C   0  0  0  0  0  0  0  0  0  0  0  0
   -7.6049  -26.8172    0.0000 C   0  0  0  0  0  0  0  0  0  0  0  0
   -6.3122  -26.0641    0.0000 C   0  0  0  0  0  0  0  0  0  0  0  0
    6.6741  -24.5725    0.0000 C   0  0  0  0  0  0  0  0  0  0  0  0
    7.9732  -23.8225    0.0000 C   0  0  0  0  0  0  0  0  0  0  0  0
    9.2783  -24.5667    0.0000 O   0  0  0  0  0  0  0  0  0  0  0  0
    7.9792  -22.3167    0.0000 O   0  0  0  0  0  0  0  0  0  0  0  0
    0.1782  -26.8208    0.0000 C   0  0  0  0  0  0  0  0  0  0  0  0
    0.1775  -28.3208    0.0000 C   0  0  0  0  0  0  0  0  0  0  0  0
   -1.1205  -26.0703    0.0000 C   0  0  0  0  0  0  0  0  0  0  0  0
  6  7  1  0  0  0  0
  8 14  1  1  0  0  0
  3  4  1  0  0  0  0
  1 15  2  0  0  0  0
  7  8  1  0  0  0  0
 15 16  1  0  0  0  0
 16 17  2  0  0  0  0
  8  9  1  0  0  0  0
 17 18  1  0  0  0  0
  3  5  1  6  0  0  0
 18 19  2  0  0  0  0
 19  1  1  0  0  0  0
  9 10  1  0  0  0  0
 11 20  1  0  0  0  0
  2  3  1  0  0  0  0
 20 21  1  0  0  0  0
 10 11  1  0  0  0  0
  4  6  1  0  0  0  0
 21 22  1  0  0  0  0
 21 23  2  0  0  0  0
 10 12  2  0  0  0  0
 14 24  1  0  0  0  0
  1  2  1  0  0  0  0
 24 25  1  0  0  0  0
  7 13  2  0  0  0  0
 24 26  1  0  0  0  0
M  END
> <Value>
2.489432803588344

> <Error>
0.0011343926344209443

> <Relation>
=

> <SourceURI>
mol:CHEMBL492355

$$$$

Generated by Molecular Materials Informatics

 30 30  0  0  0  0  0  0  0  0999 V2000
    5.1757  -23.9784    0.0000 C   0  0  0  0  0  0  0  0  0  0  0  0
    6.4748  -23.2284    0.0000 C   0  0  0  0  0  0  0  0  0  0  0  0
    7.7737  -23.9784    0.0000 C   0  0  0  0  0  0  0  0  0  0  0  0
    9.0727  -23.2284    0.0000 C   0  0  0  0  0  0  0  0  0  0  0  0
    7.7737  -25.4784    0.0000 N   0  0  0  0  0  0  0  0  0  0  0  0
   10.3718  -23.9784    0.0000 N   0  0  0  0  0  0  0  0  0  0  0  0
   11.6709  -23.2284    0.0000 C   0  0  0  0  0  0  0  0  0  0  0  0
   12.9698  -23.9784    0.0000 C   0  0  0  0  0  0  0  0  0  0  0  0
   14.2688  -23.2284    0.0000 N   0  0  0  0  0  0  0  0  0  0  0  0
   15.5679  -23.9784    0.0000 C   0  0  0  0  0  0  0  0  0  0  0  0
   16.8668  -23.2284    0.0000 N   0  0  0  0  0  0  0  0  0  0  0  0
   15.5679  -25.4784    0.0000 O   0  0  0  0  0  0  0  0  0  0  0  0
   11.6709  -21.7284    0.0000 O   0  0  0  0  0  0  0  0  0  0  0  0
   12.9692  -25.4773    0.0000 C   0  0  0  0  0  0  0  0  0  0  0  0
    3.8776  -23.2231    0.0000 C   0  0  0  0  0  0  0  0  0  0  0  0
    2.5794  -23.9718    0.0000 C   0  0  0  0  0  0  0  0  0  0  0  0
    2.5787  -25.4734    0.0000 C   0  0  0  0  0  0  0  0  0  0  0  0
    3.8868  -26.2231    0.0000 C   0  0  0  0  0  0  0  0  0  0  0  0
    5.1795  -25.4700    0.0000 C   0  0  0  0  0  0  0  0  0  0  0  0
   18.1659  -23.9784    0.0000 C   0  0  0  0  0  0  0  0  0  0  0  0
   19.4649  -23.2284    0.0000 C   0  0  0  0  0  0  0  0  0  0  0  0
   20.7698  -23.9726    0.0000 O   0  0  0  0  0  0  0  0  0  0  0  0
   19.4708  -21.7226    0.0000 O   0  0  0  0  0  0  0  0  0  0  0  0
   11.6698  -26.2267    0.0000 C   0  0  0  0  0  0  0  0  0  0  0  0
   11.6692  -27.7267    0.0000 C   0  0  0  0  0  0  0  0  0  0  0  0
   10.3711  -25.4762    0.0000 C   0  0  0  0  0  0  0  0  0  0  0  0
   18.1659  -25.4784    0.0000 C   0  0  0  0  0  0  0  0  0  0  0  0
   16.8668  -26.2283    0.0000 C   0  0  0  0  0  0  0  0  0  0  0  0
   16.8668  -27.7283    0.0000 S   0  0  0  0  0  0  0  0  0  0  0  0
   15.5679  -28.4783    0.0000 C   0  0  0  0  0  0  0  0  0  0  0  0
  7  8  1  0  0  0  0
 15 16  1  0  0  0  0
 16 17  2  0  0  0  0
  8  9  1  0  0  0  0
 17 18  1  0  0  0  0
  3  5  1  6  0  0  0
 18 19  2  0  0  0  0
 19  1  1  0  0  0  0
  9 10  1  0  0  0  0
 11 20  1  0  0  0  0
  2  3  1  0  0  0  0
 20 21  1  0  0  0  0
 10 11  1  0  0  0  0
  4  6  1  0  0  0  0
 21 22  1  0  0  0  0
 21 23  2  0  0  0  0
 10 12  2  0  0  0  0
 14 24  1  0  0  0  0
  1  2  1  0  0  0  0
 24 25  1  0  0  0  0
  7 13  2  0  0  0  0
 24 26  1  0  0  0  0
  6  7  1  0  0  0  0
 20 27  1  6  0  0  0
  8 14  1  1  0  0  0
 27 28  1  0  0  0  0
  3  4  1  0  0  0  0
 28 29  1  0  0  0  0
  1 15  2  0  0  0  0
 29 30  1  0  0  0  0
M  END
> <Value>
4.518563188091353

> <Error>
0.002873543400212064

> <Relation>
=

> <SourceURI>
mol:CHEMBL522339

$$$$

Generated by Molecular Materials Informatics

 34 35  0  0  0  0  0  0  0  0999 V2000
    4.8519  -24.0614    0.0000 C   0  0  0  0  0  0  0  0  0  0  0  0
    6.1510  -23.3114    0.0000 C   0  0  0  0  0  0  0  0  0  0  0  0
    7.4501  -24.0614    0.0000 C   0  0  0  0  0  0  0  0  0  0  0  0
    8.7490  -23.3114    0.0000 C   0  0  0  0  0  0  0  0  0  0  0  0
    7.4501  -25.5614    0.0000 N   0  0  0  0  0  0  0  0  0  0  0  0
   10.0481  -24.0614    0.0000 N   0  0  0  0  0  0  0  0  0  0  0  0
   11.3471  -23.3114    0.0000 C   0  0  0  0  0  0  0  0  0  0  0  0
   12.6462  -24.0614    0.0000 C   0  0  0  0  0  0  0  0  0  0  0  0
   13.9451  -23.3114    0.0000 N   0  0  0  0  0  0  0  0  0  0  0  0
   15.2442  -24.0614    0.0000 C   0  0  0  0  0  0  0  0  0  0  0  0
   16.5433  -23.3114    0.0000 N   0  0  0  0  0  0  0  0  0  0  0  0
   15.2442  -25.5614    0.0000 O   0  0  0  0  0  0  0  0  0  0  0  0
   11.3471  -21.8114    0.0000 O   0  0  0  0  0  0  0  0  0  0  0  0
   12.6455  -25.5601    0.0000 C   0  0  0  0  0  0  0  0  0  0  0  0
    3.5538  -23.3060    0.0000 C   0  0  0  0  0  0  0  0  0  0  0  0
    2.2556  -24.0547    0.0000 C   0  0  0  0  0  0  0  0  0  0  0  0
    2.2549  -25.5563    0.0000 C   0  0  0  0  0  0  0  0  0  0  0  0
    3.5631  -26.3061    0.0000 C   0  0  0  0  0  0  0  0  0  0  0  0
    4.8558  -25.5530    0.0000 C   0  0  0  0  0  0  0  0  0  0  0  0
   17.8422  -24.0614    0.0000 C   0  0  0  0  0  0  0  0  0  0  0  0
   19.1412  -23.3114    0.0000 C   0  0  0  0  0  0  0  0  0  0  0  0
   20.4463  -24.0554    0.0000 O   0  0  0  0  0  0  0  0  0  0  0  0
   19.1472  -21.8054    0.0000 O   0  0  0  0  0  0  0  0  0  0  0  0
   11.3462  -26.3096    0.0000 C   0  0  0  0  0  0  0  0  0  0  0  0
   11.3455  -27.8095    0.0000 C   0  0  0  0  0  0  0  0  0  0  0  0
   10.0475  -25.5590    0.0000 C   0  0  0  0  0  0  0  0  0  0  0  0
   17.8422  -25.5614    0.0000 C   0  0  0  0  0  0  0  0  0  0  0  0
   19.1412  -26.3114    0.0000 C   0  0  0  0  0  0  0  0  0  0  0  0
   19.1347  -27.8132    0.0000 C   0  0  0  0  0  0  0  0  0  0  0  0
   20.4321  -28.5632    0.0000 C   0  0  0  0  0  0  0  0  0  0  0  0
   21.7330  -27.8130    0.0000 C   0  0  0  0  0  0  0  0  0  0  0  0
   21.7281  -26.3052    0.0000 C   0  0  0  0  0  0  0  0  0  0  0  0
   20.4296  -25.5623    0.0000 C   0  0  0  0  0  0  0  0  0  0  0  0
   23.0330  -28.5614    0.0000 O   0  0  0  0  0  0  0  0  0  0  0  0
  8  9  1  0  0  0  0
 17 18  1  0  0  0  0
  3  5  1  6  0  0  0
 18 19  2  0  0  0  0
 19  1  1  0  0  0  0
  9 10  1  0  0  0  0
 11 20  1  0  0  0  0
  2  3  1  0  0  0  0
 20 21  1  0  0  0  0
 10 11  1  0  0  0  0
  4  6  1  0  0  0  0
 21 22  1  0  0  0  0
 21 23  2  0  0  0  0
 10 12  2  0  0  0  0
 14 24  1  0  0  0  0
  1  2  1  0  0  0  0
 24 25  1  0  0  0  0
  7 13  2  0  0  0  0
 24 26  1  0  0  0  0
  6  7  1  0  0  0  0
 20 27  1  6  0  0  0
  8 14  1  1  0  0  0
 27 28  1  0  0  0  0
  3  4  1  0  0  0  0
 28 29  2  0  0  0  0
  1 15  2  0  0  0  0
 29 30  1  0  0  0  0
  7  8  1  0  0  0  0
 30 31  2  0  0  0  0
 15 16  1  0  0  0  0
 31 32  1  0  0  0  0
 32 33  2  0  0  0  0
 33 28  1  0  0  0  0
 16 17  2  0  0  0  0
 31 34  1  0  0  0  0
M  END
> <Value>
3.970511148457031

> <Error>
0.0010222926683827183

> <Relation>
=

> <SourceURI>
mol:CHEMBL475646

$$$$

Generated by Molecular Materials Informatics

 27 27  0  0  0  0  0  0  0  0999 V2000
    4.5091  -24.2004    0.0000 C   0  0  0  0  0  0  0  0  0  0  0  0
    5.8080  -23.4504    0.0000 C   0  0  0  0  0  0  0  0  0  0  0  0
    7.1071  -24.2004    0.0000 C   0  0  0  0  0  0  0  0  0  0  0  0
    8.4062  -23.4504    0.0000 C   0  0  0  0  0  0  0  0  0  0  0  0
    7.1071  -25.7004    0.0000 N   0  0  0  0  0  0  0  0  0  0  0  0
    9.7053  -24.2004    0.0000 N   0  0  0  0  0  0  0  0  0  0  0  0
   11.0042  -23.4504    0.0000 C   0  0  0  0  0  0  0  0  0  0  0  0
   12.3033  -24.2004    0.0000 C   0  0  0  0  0  0  0  0  0  0  0  0
   13.6024  -23.4504    0.0000 N   0  0  0  0  0  0  0  0  0  0  0  0
   14.9013  -24.2004    0.0000 C   0  0  0  0  0  0  0  0  0  0  0  0
   16.2004  -23.4504    0.0000 C   0  0  0  0  0  0  0  0  0  0  0  0
   14.9013  -25.7004    0.0000 O   0  0  0  0  0  0  0  0  0  0  0  0
   11.0042  -21.9504    0.0000 O   0  0  0  0  0  0  0  0  0  0  0  0
   12.3026  -25.6991    0.0000 C   0  0  0  0  0  0  0  0  0  0  0  0
    3.2110  -23.4451    0.0000 C   0  0  0  0  0  0  0  0  0  0  0  0
    1.9128  -24.1939    0.0000 C   0  0  0  0  0  0  0  0  0  0  0  0
    1.9119  -25.6953    0.0000 C   0  0  0  0  0  0  0  0  0  0  0  0
    3.2200  -26.4451    0.0000 C   0  0  0  0  0  0  0  0  0  0  0  0
    4.5130  -25.6920    0.0000 C   0  0  0  0  0  0  0  0  0  0  0  0
   17.4995  -24.2004    0.0000 C   0  0  0  0  0  0  0  0  0  0  0  0
   18.7984  -23.4504    0.0000 C   0  0  0  0  0  0  0  0  0  0  0  0
   11.0033  -26.4486    0.0000 C   0  0  0  0  0  0  0  0  0  0  0  0
   11.0028  -27.9486    0.0000 C   0  0  0  0  0  0  0  0  0  0  0  0
    9.7046  -25.6980    0.0000 C   0  0  0  0  0  0  0  0  0  0  0  0
   20.0975  -24.2004    0.0000 C   0  0  0  0  0  0  0  0  0  0  0  0
   21.3965  -23.4504    0.0000 C   0  0  0  0  0  0  0  0  0  0  0  0
   22.6956  -24.2004    0.0000 N   0  0  0  0  0  0  0  0  0  0  0  0
  8 14  1  1  0  0  0
  3  4  1  0  0  0  0
  1 15  2  0  0  0  0
  7  8  1  0  0  0  0
 15 16  1  0  0  0  0
 16 17  2  0  0  0  0
  8  9  1  0  0  0  0
 17 18  1  0  0  0  0
  3  5  1  6  0  0  0
 18 19  2  0  0  0  0
 19  1  1  0  0  0  0
  9 10  1  0  0  0  0
 11 20  1  0  0  0  0
  2  3  1  0  0  0  0
 20 21  1  0  0  0  0
 10 11  1  0  0  0  0
 14 22  1  0  0  0  0
  4  6  1  0  0  0  0
 22 23  1  0  0  0  0
 10 12  2  0  0  0  0
 22 24  1  0  0  0  0
  1  2  1  0  0  0  0
 21 25  1  0  0  0  0
  7 13  2  0  0  0  0
 25 26  1  0  0  0  0
  6  7  1  0  0  0  0
 26 27  1  0  0  0  0
M  END
> <Value>
2.8382106175176727

> <Error>
0.00357876541289448

> <Relation>
=

> <SourceURI>
mol:CHEMBL493554

$$$$

Generated by Molecular Materials Informatics

 33 35  0  0  0  0  0  0  0  0999 V2000
   13.2742   -7.0014    0.0000 C   0  0  0  0  0  0  0  0  0  0  0  0
   14.5659   -7.7431    0.0000 N   0  0  0  0  0  0  0  0  0  0  0  0
   15.8576   -6.9931    0.0000 C   0  0  0  0  0  0  0  0  0  0  0  0
   17.1493   -7.7349    0.0000 C   0  0  0  0  0  0  0  0  0  0  0  0
   18.4411   -6.9849    0.0000 C   0  0  0  0  0  0  0  0  0  0  0  0
   19.7328   -7.7264    0.0000 C   0  0  0  0  0  0  0  0  0  0  0  0
   13.2707   -5.5014    0.0000 O   0  0  0  0  0  0  0  0  0  0  0  0
   17.1530   -9.2350    0.0000 N   0  0  0  0  0  0  0  0  0  0  0  0
   19.7313   -9.2179    0.0000 C   0  0  0  0  0  0  0  0  0  0  0  0
   21.0216   -9.9596    0.0000 C   0  0  0  0  0  0  0  0  0  0  0  0
   22.3115   -9.2116    0.0000 C   0  0  0  0  0  0  0  0  0  0  0  0
   22.3033   -7.7144    0.0000 C   0  0  0  0  0  0  0  0  0  0  0  0
   21.0119   -6.9796    0.0000 C   0  0  0  0  0  0  0  0  0  0  0  0
   11.9768   -7.7547    0.0000 C   0  0  0  0  0  0  0  0  0  0  0  0
   11.9805   -9.2548    0.0000 C   0  0  0  0  0  0  0  0  0  0  0  0
   13.2815  -10.0016    0.0000 C   0  0  0  0  0  0  0  0  0  0  0  0
   14.5774   -9.2421    0.0000 C   0  0  0  0  0  0  0  0  0  0  0  0
   15.8774   -9.9878    0.0000 C   0  0  0  0  0  0  0  0  0  0  0  0
   15.8818  -11.4895    0.0000 C   0  0  0  0  0  0  0  0  0  0  0  0
   14.5754  -12.2422    0.0000 C   0  0  0  0  0  0  0  0  0  0  0  0
   13.2807  -11.4924    0.0000 C   0  0  0  0  0  0  0  0  0  0  0  0
   10.6759   -7.0076    0.0000 N   0  0  0  0  0  0  0  0  0  0  0  0
    9.3787   -7.7609    0.0000 C   0  0  0  0  0  0  0  0  0  0  0  0
    8.0779   -7.0138    0.0000 C   0  0  0  0  0  0  0  0  0  0  0  0
    9.3823   -9.2610    0.0000 O   0  0  0  0  0  0  0  0  0  0  0  0
    6.7806   -7.7671    0.0000 C   0  0  0  0  0  0  0  0  0  0  0  0
    8.0743   -5.5137    0.0000 N   0  0  0  0  0  0  0  0  0  0  0  0
    5.4798   -7.0201    0.0000 C   0  0  0  0  0  0  0  0  0  0  0  0
    4.1859   -7.7796    0.0000 C   0  0  0  0  0  0  0  0  0  0  0  0
    2.8860   -7.0341    0.0000 C   0  0  0  0  0  0  0  0  0  0  0  0
    2.8816   -5.5324    0.0000 C   0  0  0  0  0  0  0  0  0  0  0  0
    4.1879   -4.7795    0.0000 C   0  0  0  0  0  0  0  0  0  0  0  0
    5.4825   -5.5295    0.0000 C   0  0  0  0  0  0  0  0  0  0  0  0
 16 17  2  0  0  0  0
  6  9  2  0  0  0  0
 17 18  1  0  0  0  0
  4  5  1  0  0  0  0
 18 19  2  0  0  0  0
  9 10  1  0  0  0  0
 19 20  1  0  0  0  0
  2  3  1  0  0  0  0
 20 21  2  0  0  0  0
 21 16  1  0  0  0  0
 10 11  2  0  0  0  0
 14 22  1  6  0  0  0
  5  6  1  0  0  0  0
 22 23  1  0  0  0  0
 11 12  1  0  0  0  0
 23 24  1  0  0  0  0
  1  2  1  0  0  0  0
 23 25  2  0  0  0  0
 12 13  2  0  0  0  0
 24 26  1  0  0  0  0
 13  6  1  0  0  0  0
 24 27  1  6  0  0  0
  1  7  2  0  0  0  0
 26 28  1  0  0  0  0
  1 14  1  0  0  0  0
 28 29  2  0  0  0  0
  3  4  1  0  0  0  0
 29 30  1  0  0  0  0
 14 15  1  0  0  0  0
 30 31  2  0  0  0  0
  4  8  1  1  0  0  0
 31 32  1  0  0  0  0
 15 16  1  0  0  0  0
 32 33  2  0  0  0  0
 33 28  1  0  0  0  0
M  END
> <Value>
4.809778832266979

> <Error>
3.3159131181381696E-4

> <Relation>
=

> <SourceURI>
mol:CHEMBL457447

$$$$

Generated by Molecular Materials Informatics

 24 24  0  0  0  0  0  0  0  0999 V2000
   15.7924  -23.2310    0.0000 C   0  0  0  0  0  0  0  0  0  0  0  0
   17.0913  -22.4810    0.0000 C   0  0  0  0  0  0  0  0  0  0  0  0
   18.3904  -23.2310    0.0000 C   0  0  0  0  0  0  0  0  0  0  0  0
   19.6895  -22.4810    0.0000 C   0  0  0  0  0  0  0  0  0  0  0  0
   18.3904  -24.7309    0.0000 N   0  0  0  0  0  0  0  0  0  0  0  0
   20.9886  -23.2310    0.0000 N   0  0  0  0  0  0  0  0  0  0  0  0
   22.2874  -22.4810    0.0000 C   0  0  0  0  0  0  0  0  0  0  0  0
   23.5865  -23.2310    0.0000 C   0  0  0  0  0  0  0  0  0  0  0  0
   24.8856  -22.4810    0.0000 N   0  0  0  0  0  0  0  0  0  0  0  0
   26.1845  -23.2310    0.0000 C   0  0  0  0  0  0  0  0  0  0  0  0
   27.4835  -22.4810    0.0000 N   0  0  0  0  0  0  0  0  0  0  0  0
   26.1845  -24.7309    0.0000 O   0  0  0  0  0  0  0  0  0  0  0  0
   22.2874  -20.9810    0.0000 O   0  0  0  0  0  0  0  0  0  0  0  0
   23.5858  -24.7297    0.0000 C   0  0  0  0  0  0  0  0  0  0  0  0
   14.4943  -22.4755    0.0000 C   0  0  0  0  0  0  0  0  0  0  0  0
   13.1961  -23.2242    0.0000 C   0  0  0  0  0  0  0  0  0  0  0  0
   13.1952  -24.7258    0.0000 C   0  0  0  0  0  0  0  0  0  0  0  0
   14.5034  -25.4757    0.0000 C   0  0  0  0  0  0  0  0  0  0  0  0
   15.7963  -24.7226    0.0000 C   0  0  0  0  0  0  0  0  0  0  0  0
   22.2865  -25.4791    0.0000 S   0  0  0  0  0  0  0  0  0  0  0  0
   28.7826  -23.2310    0.0000 C   0  0  0  0  0  0  0  0  0  0  0  0
   30.0815  -22.4810    0.0000 C   0  0  0  0  0  0  0  0  0  0  0  0
   31.3866  -23.2250    0.0000 O   0  0  0  0  0  0  0  0  0  0  0  0
   30.0875  -20.9750    0.0000 O   0  0  0  0  0  0  0  0  0  0  0  0
  1  2  1  0  0  0  0
  7 13  2  0  0  0  0
  6  7  1  0  0  0  0
  8 14  1  1  0  0  0
  3  4  1  0  0  0  0
  1 15  2  0  0  0  0
  7  8  1  0  0  0  0
 15 16  1  0  0  0  0
 16 17  2  0  0  0  0
  8  9  1  0  0  0  0
 17 18  1  0  0  0  0
  3  5  1  6  0  0  0
 18 19  2  0  0  0  0
 19  1  1  0  0  0  0
  9 10  1  0  0  0  0
 14 20  1  0  0  0  0
  2  3  1  0  0  0  0
 11 21  1  0  0  0  0
 10 11  1  0  0  0  0
 21 22  1  0  0  0  0
  4  6  1  0  0  0  0
 10 12  2  0  0  0  0
 22 23  1  0  0  0  0
 22 24  2  0  0  0  0
M  END
> <Value>
3.7601000943688345

> <Error>
2.001743681336876E-4

> <Relation>
=

> <SourceURI>
mol:CHEMBL474994

$$$$

Generated by Molecular Materials Informatics

 26 26  0  0  0  0  0  0  0  0999 V2000
   -6.2659    1.4279    0.0000 C   0  0  0  0  0  0  0  0  0  0  0  0
   -4.9669    2.1779    0.0000 C   0  0  0  0  0  0  0  0  0  0  0  0
   -3.6678    1.4279    0.0000 C   0  0  0  0  0  0  0  0  0  0  0  0
   -2.3690    2.1779    0.0000 C   0  0  0  0  0  0  0  0  0  0  0  0
   -3.6678   -0.0721    0.0000 N   0  0  0  0  0  0  0  0  0  0  0  0
   -1.0699    1.4279    0.0000 N   0  0  0  0  0  0  0  0  0  0  0  0
    0.2291    2.1779    0.0000 C   0  0  0  0  0  0  0  0  0  0  0  0
    1.5282    1.4279    0.0000 C   0  0  0  0  0  0  0  0  0  0  0  0
    2.8271    2.1779    0.0000 N   0  0  0  0  0  0  0  0  0  0  0  0
    4.1261    1.4279    0.0000 C   0  0  0  0  0  0  0  0  0  0  0  0
    5.4252    2.1779    0.0000 N   0  0  0  0  0  0  0  0  0  0  0  0
    4.1261   -0.0721    0.0000 O   0  0  0  0  0  0  0  0  0  0  0  0
    0.2291    3.6778    0.0000 O   0  0  0  0  0  0  0  0  0  0  0  0
    1.5275   -0.0710    0.0000 C   0  0  0  0  0  0  0  0  0  0  0  0
   -7.5641    2.1831    0.0000 C   0  0  0  0  0  0  0  0  0  0  0  0
   -8.8622    1.4344    0.0000 C   0  0  0  0  0  0  0  0  0  0  0  0
   -8.8629   -0.0672    0.0000 C   0  0  0  0  0  0  0  0  0  0  0  0
   -7.5548   -0.8168    0.0000 C   0  0  0  0  0  0  0  0  0  0  0  0
   -6.2621   -0.0637    0.0000 C   0  0  0  0  0  0  0  0  0  0  0  0
    0.2282   -0.8204    0.0000 S   0  0  0  0  0  0  0  0  0  0  0  0
    6.7240    1.4279    0.0000 C   0  0  0  0  0  0  0  0  0  0  0  0
    8.0231    2.1779    0.0000 C   0  0  0  0  0  0  0  0  0  0  0  0
    6.7240   -0.0721    0.0000 C   0  0  0  0  0  0  0  0  0  0  0  0
    9.3281    1.4337    0.0000 O   0  0  0  0  0  0  0  0  0  0  0  0
    8.0291    3.6836    0.0000 O   0  0  0  0  0  0  0  0  0  0  0  0
    8.0231   -0.8220    0.0000 S   0  0  0  0  0  0  0  0  0  0  0  0
  6  7  1  0  0  0  0
  8 14  1  1  0  0  0
  3  4  1  0  0  0  0
  1 15  2  0  0  0  0
  7  8  1  0  0  0  0
 15 16  1  0  0  0  0
 16 17  2  0  0  0  0
  8  9  1  0  0  0  0
 17 18  1  0  0  0  0
  3  5  1  6  0  0  0
 18 19  2  0  0  0  0
 19  1  1  0  0  0  0
  9 10  1  0  0  0  0
 14 20  1  0  0  0  0
  2  3  1  0  0  0  0
 11 21  1  0  0  0  0
 10 11  1  0  0  0  0
 21 22  1  0  0  0  0
  4  6  1  0  0  0  0
 21 23  1  1  0  0  0
 10 12  2  0  0  0  0
  1  2  1  0  0  0  0
 22 24  1  0  0  0  0
 22 25  2  0  0  0  0
  7 13  2  0  0  0  0
 23 26  1  0  0  0  0
M  END
> <Value>
4.988581386009356

> <Error>
0.0028372214290568465

> <Relation>
=

> <SourceURI>
mol:CHEMBL515750

$$$$

Generated by Molecular Materials Informatics

 28 28  0  0  0  0  0  0  0  0999 V2000
    5.0883    1.7283    0.0000 C   0  0  0  0  0  0  0  0  0  0  0  0
    6.3874    2.4783    0.0000 C   0  0  0  0  0  0  0  0  0  0  0  0
    7.6862    1.7283    0.0000 C   0  0  0  0  0  0  0  0  0  0  0  0
    8.9853    2.4783    0.0000 C   0  0  0  0  0  0  0  0  0  0  0  0
    7.6862    0.2284    0.0000 N   0  0  0  0  0  0  0  0  0  0  0  0
   10.2843    1.7283    0.0000 N   0  0  0  0  0  0  0  0  0  0  0  0
   11.5834    2.4783    0.0000 C   0  0  0  0  0  0  0  0  0  0  0  0
   12.8823    1.7283    0.0000 C   0  0  0  0  0  0  0  0  0  0  0  0
   14.1813    2.4783    0.0000 N   0  0  0  0  0  0  0  0  0  0  0  0
   15.4804    1.7283    0.0000 C   0  0  0  0  0  0  0  0  0  0  0  0
   16.7792    2.4783    0.0000 N   0  0  0  0  0  0  0  0  0  0  0  0
   15.4804    0.2284    0.0000 O   0  0  0  0  0  0  0  0  0  0  0  0
   11.5834    3.9783    0.0000 O   0  0  0  0  0  0  0  0  0  0  0  0
   12.8817    0.2295    0.0000 C   0  0  0  0  0  0  0  0  0  0  0  0
    3.7902    2.4836    0.0000 C   0  0  0  0  0  0  0  0  0  0  0  0
    2.4920    1.7349    0.0000 C   0  0  0  0  0  0  0  0  0  0  0  0
    2.4913    0.2333    0.0000 C   0  0  0  0  0  0  0  0  0  0  0  0
    3.7994   -0.5163    0.0000 C   0  0  0  0  0  0  0  0  0  0  0  0
    5.0921    0.2367    0.0000 C   0  0  0  0  0  0  0  0  0  0  0  0
   11.5823   -0.5200    0.0000 S   0  0  0  0  0  0  0  0  0  0  0  0
   18.0783    1.7283    0.0000 C   0  0  0  0  0  0  0  0  0  0  0  0
   19.3773    2.4783    0.0000 C   0  0  0  0  0  0  0  0  0  0  0  0
   18.0783    0.2284    0.0000 C   0  0  0  0  0  0  0  0  0  0  0  0
   20.6822    1.7341    0.0000 O   0  0  0  0  0  0  0  0  0  0  0  0
   19.3832    3.9841    0.0000 O   0  0  0  0  0  0  0  0  0  0  0  0
   19.3773   -0.5216    0.0000 C   0  0  0  0  0  0  0  0  0  0  0  0
   19.3708   -2.0236    0.0000 C   0  0  0  0  0  0  0  0  0  0  0  0
   20.6657    0.2275    0.0000 C   0  0  0  0  0  0  0  0  0  0  0  0
  3  4  1  0  0  0  0
  1 15  2  0  0  0  0
  7  8  1  0  0  0  0
 15 16  1  0  0  0  0
 16 17  2  0  0  0  0
  8  9  1  0  0  0  0
 17 18  1  0  0  0  0
  3  5  1  6  0  0  0
 18 19  2  0  0  0  0
 19  1  1  0  0  0  0
  9 10  1  0  0  0  0
 14 20  1  0  0  0  0
  2  3  1  0  0  0  0
 11 21  1  0  0  0  0
 10 11  1  0  0  0  0
 21 22  1  0  0  0  0
  4  6  1  0  0  0  0
 21 23  1  6  0  0  0
 10 12  2  0  0  0  0
  1  2  1  0  0  0  0
 22 24  1  0  0  0  0
 22 25  2  0  0  0  0
  7 13  2  0  0  0  0
 23 26  1  0  0  0  0
  6  7  1  0  0  0  0
 26 27  1  0  0  0  0
  8 14  1  1  0  0  0
 28 26  1  0  0  0  0
M  END
> <Value>
4.348393739296659

> <Error>
0.0032125061440062552

> <Relation>
=

> <SourceURI>
mol:CHEMBL515412

$$$$

Generated by Molecular Materials Informatics

 28 28  0  0  0  0  0  0  0  0999 V2000
   -6.7201   -2.1459    0.0000 C   0  0  0  0  0  0  0  0  0  0  0  0
   -5.4212   -1.3959    0.0000 C   0  0  0  0  0  0  0  0  0  0  0  0
   -4.1221   -2.1459    0.0000 C   0  0  0  0  0  0  0  0  0  0  0  0
   -2.8231   -1.3959    0.0000 C   0  0  0  0  0  0  0  0  0  0  0  0
   -4.1221   -3.6459    0.0000 N   0  0  0  0  0  0  0  0  0  0  0  0
   -1.5240   -2.1459    0.0000 N   0  0  0  0  0  0  0  0  0  0  0  0
   -0.2251   -1.3959    0.0000 C   0  0  0  0  0  0  0  0  0  0  0  0
    1.0740   -2.1459    0.0000 C   0  0  0  0  0  0  0  0  0  0  0  0
    2.3731   -1.3959    0.0000 N   0  0  0  0  0  0  0  0  0  0  0  0
    3.6720   -2.1459    0.0000 C   0  0  0  0  0  0  0  0  0  0  0  0
    4.9711   -1.3959    0.0000 N   0  0  0  0  0  0  0  0  0  0  0  0
    3.6720   -3.6459    0.0000 O   0  0  0  0  0  0  0  0  0  0  0  0
   -0.2251    0.1041    0.0000 O   0  0  0  0  0  0  0  0  0  0  0  0
    1.0733   -3.6446    0.0000 C   0  0  0  0  0  0  0  0  0  0  0  0
   -8.0183   -1.3906    0.0000 C   0  0  0  0  0  0  0  0  0  0  0  0
   -9.3165   -2.1394    0.0000 C   0  0  0  0  0  0  0  0  0  0  0  0
   -9.3174   -3.6408    0.0000 C   0  0  0  0  0  0  0  0  0  0  0  0
   -8.0092   -4.3906    0.0000 C   0  0  0  0  0  0  0  0  0  0  0  0
   -6.7163   -3.6376    0.0000 C   0  0  0  0  0  0  0  0  0  0  0  0
   -0.2260   -4.3941    0.0000 S   0  0  0  0  0  0  0  0  0  0  0  0
    6.2702   -2.1459    0.0000 C   0  0  0  0  0  0  0  0  0  0  0  0
    7.5691   -1.3959    0.0000 C   0  0  0  0  0  0  0  0  0  0  0  0
    6.2702   -3.6459    0.0000 C   0  0  0  0  0  0  0  0  0  0  0  0
    8.8742   -2.1401    0.0000 O   0  0  0  0  0  0  0  0  0  0  0  0
    7.5751    0.1099    0.0000 O   0  0  0  0  0  0  0  0  0  0  0  0
    7.5691   -4.3959    0.0000 C   0  0  0  0  0  0  0  0  0  0  0  0
    7.5626   -5.8979    0.0000 S   0  0  0  0  0  0  0  0  0  0  0  0
    6.2602   -6.6421    0.0000 C   0  0  0  0  0  0  0  0  0  0  0  0
  3  4  1  0  0  0  0
  1 15  2  0  0  0  0
  7  8  1  0  0  0  0
 15 16  1  0  0  0  0
 16 17  2  0  0  0  0
  8  9  1  0  0  0  0
 17 18  1  0  0  0  0
  3  5  1  6  0  0  0
 18 19  2  0  0  0  0
 19  1  1  0  0  0  0
  9 10  1  0  0  0  0
 14 20  1  0  0  0  0
  2  3  1  0  0  0  0
 11 21  1  0  0  0  0
 10 11  1  0  0  0  0
 21 22  1  0  0  0  0
  4  6  1  0  0  0  0
 21 23  1  6  0  0  0
 10 12  2  0  0  0  0
  1  2  1  0  0  0  0
 22 24  1  0  0  0  0
 22 25  2  0  0  0  0
  7 13  2  0  0  0  0
 23 26  1  0  0  0  0
  6  7  1  0  0  0  0
 26 27  1  0  0  0  0
  8 14  1  1  0  0  0
 27 28  1  0  0  0  0
M  END
> <Value>
4.781258015781793

> <Error>
0.0025160800086005963

> <Relation>
=

> <SourceURI>
mol:CHEMBL473838

$$$$

Generated by Molecular Materials Informatics

 29 29  0  0  0  0  0  0  0  0999 V2000
    5.0549   -1.8084    0.0000 C   0  0  0  0  0  0  0  0  0  0  0  0
    6.3538   -1.0584    0.0000 C   0  0  0  0  0  0  0  0  0  0  0  0
    7.6529   -1.8084    0.0000 C   0  0  0  0  0  0  0  0  0  0  0  0
    8.9519   -1.0584    0.0000 C   0  0  0  0  0  0  0  0  0  0  0  0
    7.6529   -3.3084    0.0000 N   0  0  0  0  0  0  0  0  0  0  0  0
   10.2510   -1.8084    0.0000 N   0  0  0  0  0  0  0  0  0  0  0  0
   11.5499   -1.0584    0.0000 C   0  0  0  0  0  0  0  0  0  0  0  0
   12.8490   -1.8084    0.0000 C   0  0  0  0  0  0  0  0  0  0  0  0
   14.1481   -1.0584    0.0000 N   0  0  0  0  0  0  0  0  0  0  0  0
   15.4470   -1.8084    0.0000 C   0  0  0  0  0  0  0  0  0  0  0  0
   16.7461   -1.0584    0.0000 N   0  0  0  0  0  0  0  0  0  0  0  0
   15.4470   -3.3084    0.0000 O   0  0  0  0  0  0  0  0  0  0  0  0
   11.5499    0.4416    0.0000 O   0  0  0  0  0  0  0  0  0  0  0  0
   12.8483   -3.3071    0.0000 C   0  0  0  0  0  0  0  0  0  0  0  0
    3.7567   -1.0531    0.0000 C   0  0  0  0  0  0  0  0  0  0  0  0
    2.4585   -1.8019    0.0000 C   0  0  0  0  0  0  0  0  0  0  0  0
    2.4576   -3.3033    0.0000 C   0  0  0  0  0  0  0  0  0  0  0  0
    3.7658   -4.0531    0.0000 C   0  0  0  0  0  0  0  0  0  0  0  0
    5.0587   -3.3001    0.0000 C   0  0  0  0  0  0  0  0  0  0  0  0
   11.5490   -4.0566    0.0000 S   0  0  0  0  0  0  0  0  0  0  0  0
   18.0452   -1.8084    0.0000 C   0  0  0  0  0  0  0  0  0  0  0  0
   19.3441   -1.0584    0.0000 C   0  0  0  0  0  0  0  0  0  0  0  0
   18.0452   -3.3084    0.0000 C   0  0  0  0  0  0  0  0  0  0  0  0
   20.6492   -1.8026    0.0000 O   0  0  0  0  0  0  0  0  0  0  0  0
   19.3501    0.4474    0.0000 O   0  0  0  0  0  0  0  0  0  0  0  0
   19.3441   -4.0584    0.0000 C   0  0  0  0  0  0  0  0  0  0  0  0
   19.3376   -5.5604    0.0000 C   0  0  0  0  0  0  0  0  0  0  0  0
   18.0352   -6.3046    0.0000 C   0  0  0  0  0  0  0  0  0  0  0  0
   18.0287   -7.8046    0.0000 N   0  0  0  0  0  0  0  0  0  0  0  0
  1 15  2  0  0  0  0
  7  8  1  0  0  0  0
 15 16  1  0  0  0  0
 16 17  2  0  0  0  0
  8  9  1  0  0  0  0
 17 18  1  0  0  0  0
  3  5  1  6  0  0  0
 18 19  2  0  0  0  0
 19  1  1  0  0  0  0
  9 10  1  0  0  0  0
 14 20  1  0  0  0  0
  2  3  1  0  0  0  0
 11 21  1  0  0  0  0
 10 11  1  0  0  0  0
 21 22  1  0  0  0  0
  4  6  1  0  0  0  0
 21 23  1  6  0  0  0
 10 12  2  0  0  0  0
  1  2  1  0  0  0  0
 22 24  1  0  0  0  0
 22 25  2  0  0  0  0
  7 13  2  0  0  0  0
 23 26  1  0  0  0  0
  6  7  1  0  0  0  0
 26 27  1  0  0  0  0
  8 14  1  1  0  0  0
 27 28  1  0  0  0  0
  3  4  1  0  0  0  0
 28 29  1  0  0  0  0
M  END
> <Value>
5.067750784124627

> <Error>
0.004498470736388427

> <Relation>
=

> <SourceURI>
mol:CHEMBL515124

$$$$

Generated by Molecular Materials Informatics

 28 28  0  0  0  0  0  0  0  0999 V2000
   -6.7200   -6.4752    0.0000 C   0  0  0  0  0  0  0  0  0  0  0  0
   -5.4212   -5.7252    0.0000 C   0  0  0  0  0  0  0  0  0  0  0  0
   -4.1221   -6.4752    0.0000 C   0  0  0  0  0  0  0  0  0  0  0  0
   -2.8230   -5.7252    0.0000 C   0  0  0  0  0  0  0  0  0  0  0  0
   -4.1221   -7.9752    0.0000 N   0  0  0  0  0  0  0  0  0  0  0  0
   -1.5239   -6.4752    0.0000 N   0  0  0  0  0  0  0  0  0  0  0  0
   -0.2251   -5.7252    0.0000 C   0  0  0  0  0  0  0  0  0  0  0  0
    1.0740   -6.4752    0.0000 C   0  0  0  0  0  0  0  0  0  0  0  0
    2.3731   -5.7252    0.0000 N   0  0  0  0  0  0  0  0  0  0  0  0
    3.6720   -6.4752    0.0000 C   0  0  0  0  0  0  0  0  0  0  0  0
    4.9710   -5.7252    0.0000 N   0  0  0  0  0  0  0  0  0  0  0  0
    3.6720   -7.9752    0.0000 O   0  0  0  0  0  0  0  0  0  0  0  0
   -0.2251   -4.2252    0.0000 O   0  0  0  0  0  0  0  0  0  0  0  0
    1.0733   -7.9739    0.0000 C   0  0  0  0  0  0  0  0  0  0  0  0
   -8.0182   -5.7197    0.0000 C   0  0  0  0  0  0  0  0  0  0  0  0
   -9.3164   -6.4684    0.0000 C   0  0  0  0  0  0  0  0  0  0  0  0
   -9.3173   -7.9701    0.0000 C   0  0  0  0  0  0  0  0  0  0  0  0
   -8.0091   -8.7199    0.0000 C   0  0  0  0  0  0  0  0  0  0  0  0
   -6.7162   -7.9668    0.0000 C   0  0  0  0  0  0  0  0  0  0  0  0
   -0.2260   -8.7233    0.0000 S   0  0  0  0  0  0  0  0  0  0  0  0
    6.2701   -6.4752    0.0000 C   0  0  0  0  0  0  0  0  0  0  0  0
    7.5690   -5.7252    0.0000 C   0  0  0  0  0  0  0  0  0  0  0  0
    6.2701   -7.9752    0.0000 C   0  0  0  0  0  0  0  0  0  0  0  0
    8.8741   -6.4692    0.0000 O   0  0  0  0  0  0  0  0  0  0  0  0
    7.5750   -4.2192    0.0000 O   0  0  0  0  0  0  0  0  0  0  0  0
    7.5690   -8.7251    0.0000 C   0  0  0  0  0  0  0  0  0  0  0  0
    7.5625  -10.2269    0.0000 C   0  0  0  0  0  0  0  0  0  0  0  0
    6.2601  -10.9713    0.0000 N   0  0  0  0  0  0  0  0  0  0  0  0
  3  4  1  0  0  0  0
  1 15  2  0  0  0  0
  7  8  1  0  0  0  0
 15 16  1  0  0  0  0
 16 17  2  0  0  0  0
  8  9  1  0  0  0  0
 17 18  1  0  0  0  0
  3  5  1  6  0  0  0
 18 19  2  0  0  0  0
 19  1  1  0  0  0  0
  9 10  1  0  0  0  0
 14 20  1  0  0  0  0
  2  3  1  0  0  0  0
 11 21  1  0  0  0  0
 10 11  1  0  0  0  0
 21 22  1  0  0  0  0
  4  6  1  0  0  0  0
 21 23  1  6  0  0  0
 10 12  2  0  0  0  0
  1  2  1  0  0  0  0
 22 24  1  0  0  0  0
 22 25  2  0  0  0  0
  7 13  2  0  0  0  0
 23 26  1  0  0  0  0
  6  7  1  0  0  0  0
 26 27  1  0  0  0  0
  8 14  1  1  0  0  0
 27 28  1  0  0  0  0
M  END
> <Value>
4.479430972235711

> <Error>
0.001138111879494197

> <Relation>
=

> <SourceURI>
mol:CHEMBL474850

$$$$

Generated by Molecular Materials Informatics

 32 33  0  0  0  0  0  0  0  0999 V2000
   -7.1911    2.5368    0.0000 C   0  0  0  0  0  0  0  0  0  0  0  0
   -5.8920    3.2868    0.0000 C   0  0  0  0  0  0  0  0  0  0  0  0
   -4.5929    2.5368    0.0000 C   0  0  0  0  0  0  0  0  0  0  0  0
   -3.2940    3.2868    0.0000 C   0  0  0  0  0  0  0  0  0  0  0  0
   -4.5929    1.0368    0.0000 N   0  0  0  0  0  0  0  0  0  0  0  0
   -1.9949    2.5368    0.0000 N   0  0  0  0  0  0  0  0  0  0  0  0
   -0.6959    3.2868    0.0000 C   0  0  0  0  0  0  0  0  0  0  0  0
    0.6032    2.5368    0.0000 C   0  0  0  0  0  0  0  0  0  0  0  0
    1.9021    3.2868    0.0000 N   0  0  0  0  0  0  0  0  0  0  0  0
    3.2012    2.5368    0.0000 C   0  0  0  0  0  0  0  0  0  0  0  0
    4.5003    3.2868    0.0000 N   0  0  0  0  0  0  0  0  0  0  0  0
    3.2012    1.0368    0.0000 O   0  0  0  0  0  0  0  0  0  0  0  0
   -0.6959    4.7868    0.0000 O   0  0  0  0  0  0  0  0  0  0  0  0
    0.6025    1.0380    0.0000 C   0  0  0  0  0  0  0  0  0  0  0  0
   -8.4893    3.2922    0.0000 C   0  0  0  0  0  0  0  0  0  0  0  0
   -9.7875    2.5435    0.0000 C   0  0  0  0  0  0  0  0  0  0  0  0
   -9.7882    1.0419    0.0000 C   0  0  0  0  0  0  0  0  0  0  0  0
   -8.4800    0.2920    0.0000 C   0  0  0  0  0  0  0  0  0  0  0  0
   -7.1873    1.0451    0.0000 C   0  0  0  0  0  0  0  0  0  0  0  0
   -0.6968    0.2886    0.0000 C   0  0  0  0  0  0  0  0  0  0  0  0
   -1.9888    1.0431    0.0000 C   0  0  0  0  0  0  0  0  0  0  0  0
   -3.2873    0.2950    0.0000 C   0  0  0  0  0  0  0  0  0  0  0  0
   -3.2888   -1.2067    0.0000 C   0  0  0  0  0  0  0  0  0  0  0  0
   -1.9808   -1.9569    0.0000 C   0  0  0  0  0  0  0  0  0  0  0  0
   -0.6877   -1.2043    0.0000 C   0  0  0  0  0  0  0  0  0  0  0  0
    5.7992    2.5368    0.0000 C   0  0  0  0  0  0  0  0  0  0  0  0
    7.0983    3.2868    0.0000 C   0  0  0  0  0  0  0  0  0  0  0  0
    5.7992    1.0368    0.0000 C   0  0  0  0  0  0  0  0  0  0  0  0
    8.4034    2.5428    0.0000 O   0  0  0  0  0  0  0  0  0  0  0  0
    7.1043    4.7928    0.0000 O   0  0  0  0  0  0  0  0  0  0  0  0
    4.5003    0.2868    0.0000 C   0  0  0  0  0  0  0  0  0  0  0  0
    7.0983    0.2868    0.0000 C   0  0  0  0  0  0  0  0  0  0  0  0
 16 17  2  0  0  0  0
  8  9  1  0  0  0  0
 17 18  1  0  0  0  0
  3  5  1  6  0  0  0
 18 19  2  0  0  0  0
 19  1  1  0  0  0  0
  9 10  1  0  0  0  0
 14 20  1  0  0  0  0
  2  3  1  0  0  0  0
 20 21  2  0  0  0  0
 10 11  1  0  0  0  0
 21 22  1  0  0  0  0
  4  6  1  0  0  0  0
 22 23  2  0  0  0  0
 10 12  2  0  0  0  0
 23 24  1  0  0  0  0
  1  2  1  0  0  0  0
 24 25  2  0  0  0  0
 25 20  1  0  0  0  0
  7 13  2  0  0  0  0
 11 26  1  0  0  0  0
  6  7  1  0  0  0  0
 26 27  1  0  0  0  0
  8 14  1  1  0  0  0
 26 28  1  6  0  0  0
  3  4  1  0  0  0  0
  1 15  2  0  0  0  0
 27 29  1  0  0  0  0
 27 30  2  0  0  0  0
  7  8  1  0  0  0  0
 28 31  1  0  0  0  0
 15 16  1  0  0  0  0
 28 32  1  0  0  0  0
M  END
> <Value>
4.231422050495439

> <Error>
0.0028441668447607427

> <Relation>
=

> <SourceURI>
mol:CHEMBL475399

$$$$

Generated by Molecular Materials Informatics

 36 38  0  0  0  0  0  0  0  0999 V2000
    3.6958    1.3678    0.0000 C   0  0  0  0  0  0  0  0  0  0  0  0
    4.9950    2.1178    0.0000 C   0  0  0  0  0  0  0  0  0  0  0  0
    6.2939    1.3678    0.0000 C   0  0  0  0  0  0  0  0  0  0  0  0
    7.5932    2.1178    0.0000 C   0  0  0  0  0  0  0  0  0  0  0  0
    6.2939   -0.1321    0.0000 N   0  0  0  0  0  0  0  0  0  0  0  0
    8.8922    1.3678    0.0000 N   0  0  0  0  0  0  0  0  0  0  0  0
   10.1915    2.1178    0.0000 C   0  0  0  0  0  0  0  0  0  0  0  0
   11.4904    1.3678    0.0000 C   0  0  0  0  0  0  0  0  0  0  0  0
   12.7896    2.1178    0.0000 N   0  0  0  0  0  0  0  0  0  0  0  0
   14.0887    1.3678    0.0000 C   0  0  0  0  0  0  0  0  0  0  0  0
   15.3878    2.1178    0.0000 C   0  0  0  0  0  0  0  0  0  0  0  0
   14.0887   -0.1321    0.0000 O   0  0  0  0  0  0  0  0  0  0  0  0
   10.1915    3.6180    0.0000 O   0  0  0  0  0  0  0  0  0  0  0  0
   11.4898   -0.1309    0.0000 C   0  0  0  0  0  0  0  0  0  0  0  0
    2.3976    2.1231    0.0000 C   0  0  0  0  0  0  0  0  0  0  0  0
    1.0993    1.3744    0.0000 C   0  0  0  0  0  0  0  0  0  0  0  0
    1.0985   -0.1271    0.0000 C   0  0  0  0  0  0  0  0  0  0  0  0
    2.4069   -0.8770    0.0000 C   0  0  0  0  0  0  0  0  0  0  0  0
    3.6996   -0.1238    0.0000 C   0  0  0  0  0  0  0  0  0  0  0  0
   10.1904   -0.8805    0.0000 C   0  0  0  0  0  0  0  0  0  0  0  0
    8.8984   -0.1258    0.0000 C   0  0  0  0  0  0  0  0  0  0  0  0
    7.5999   -0.8741    0.0000 C   0  0  0  0  0  0  0  0  0  0  0  0
    7.5984   -2.3757    0.0000 C   0  0  0  0  0  0  0  0  0  0  0  0
    8.9062   -3.1261    0.0000 C   0  0  0  0  0  0  0  0  0  0  0  0
   10.1995   -2.3736    0.0000 C   0  0  0  0  0  0  0  0  0  0  0  0
   16.6916    1.3569    0.0000 C   0  0  0  0  0  0  0  0  0  0  0  0
   17.9899    2.1058    0.0000 C   0  0  0  0  0  0  0  0  0  0  0  0
   17.9906    3.6074    0.0000 C   0  0  0  0  0  0  0  0  0  0  0  0
   16.6825    4.3572    0.0000 C   0  0  0  0  0  0  0  0  0  0  0  0
   15.3896    3.6042    0.0000 C   0  0  0  0  0  0  0  0  0  0  0  0
   19.2926    1.3509    0.0000 N   0  3  0  0  0  0  0  0  0  0  0  0
   20.5921    2.1002    0.0000 O   0  0  0  0  0  0  0  0  0  0  0  0
   19.2919   -0.1491    0.0000 O   0  5  0  0  0  0  0  0  0  0  0  0
   16.6716    5.8550    0.0000 N   0  3  0  0  0  0  0  0  0  0  0  0
   15.3712    6.6027    0.0000 O   0  0  0  0  0  0  0  0  0  0  0  0
   17.9745    6.6163    0.0000 O   0  5  0  0  0  0  0  0  0  0  0  0
  3  5  1  6  0  0  0
 18 19  2  0  0  0  0
 19  1  1  0  0  0  0
  9 10  1  0  0  0  0
 14 20  1  0  0  0  0
  2  3  1  0  0  0  0
 20 21  2  0  0  0  0
 10 11  1  0  0  0  0
 21 22  1  0  0  0  0
  4  6  1  0  0  0  0
 22 23  2  0  0  0  0
 10 12  2  0  0  0  0
 23 24  1  0  0  0  0
  1  2  1  0  0  0  0
 24 25  2  0  0  0  0
 25 20  1  0  0  0  0
  7 13  2  0  0  0  0
 11 26  2  0  0  0  0
  6  7  1  0  0  0  0
 26 27  1  0  0  0  0
  8 14  1  1  0  0  0
 27 28  2  0  0  0  0
  3  4  1  0  0  0  0
 28 29  1  0  0  0  0
  1 15  2  0  0  0  0
 29 30  2  0  0  0  0
 30 11  1  0  0  0  0
  7  8  1  0  0  0  0
 15 16  1  0  0  0  0
 31 32  2  0  0  0  0
 31 33  1  0  0  0  0
 27 31  1  0  0  0  0
 16 17  2  0  0  0  0
  8  9  1  0  0  0  0
 17 18  1  0  0  0  0
 34 35  2  0  0  0  0
 34 36  1  0  0  0  0
 29 34  1  0  0  0  0
M  CHG  4  31   1  33  -1  34   1  36  -1
M  END
> <Value>
3.558603387293301

> <Error>
0.0027932264661405526

> <Relation>
=

> <SourceURI>
mol:CHEMBL475563

$$$$

Generated by Molecular Materials Informatics

 34 35  0  0  0  0  0  0  0  0999 V2000
   -6.9786   -1.5784    0.0000 C   0  0  0  0  0  0  0  0  0  0  0  0
   -5.6795   -0.8284    0.0000 C   0  0  0  0  0  0  0  0  0  0  0  0
   -4.3804   -1.5784    0.0000 C   0  0  0  0  0  0  0  0  0  0  0  0
   -3.0815   -0.8284    0.0000 C   0  0  0  0  0  0  0  0  0  0  0  0
   -4.3804   -3.0784    0.0000 N   0  0  0  0  0  0  0  0  0  0  0  0
   -1.7824   -1.5784    0.0000 N   0  0  0  0  0  0  0  0  0  0  0  0
   -0.4834   -0.8284    0.0000 C   0  0  0  0  0  0  0  0  0  0  0  0
    0.8157   -1.5784    0.0000 C   0  0  0  0  0  0  0  0  0  0  0  0
    2.1146   -0.8284    0.0000 N   0  0  0  0  0  0  0  0  0  0  0  0
    3.4137   -1.5784    0.0000 C   0  0  0  0  0  0  0  0  0  0  0  0
    4.7128   -0.8284    0.0000 N   0  0  0  0  0  0  0  0  0  0  0  0
    3.4137   -3.0784    0.0000 O   0  0  0  0  0  0  0  0  0  0  0  0
   -0.4834    0.6716    0.0000 O   0  0  0  0  0  0  0  0  0  0  0  0
    0.8150   -3.0773    0.0000 C   0  0  0  0  0  0  0  0  0  0  0  0
   -8.2768   -0.8231    0.0000 C   0  0  0  0  0  0  0  0  0  0  0  0
   -9.5750   -1.5718    0.0000 C   0  0  0  0  0  0  0  0  0  0  0  0
   -9.5757   -3.0734    0.0000 C   0  0  0  0  0  0  0  0  0  0  0  0
   -8.2675   -3.8231    0.0000 C   0  0  0  0  0  0  0  0  0  0  0  0
   -6.9748   -3.0700    0.0000 C   0  0  0  0  0  0  0  0  0  0  0  0
   -0.4843   -3.8267    0.0000 C   0  0  0  0  0  0  0  0  0  0  0  0
   -1.7763   -3.0720    0.0000 C   0  0  0  0  0  0  0  0  0  0  0  0
   -3.0748   -3.8204    0.0000 C   0  0  0  0  0  0  0  0  0  0  0  0
   -3.0763   -5.3218    0.0000 C   0  0  0  0  0  0  0  0  0  0  0  0
   -1.7683   -6.0722    0.0000 C   0  0  0  0  0  0  0  0  0  0  0  0
   -0.4752   -5.3196    0.0000 C   0  0  0  0  0  0  0  0  0  0  0  0
    6.0117   -1.5784    0.0000 C   0  0  0  0  0  0  0  0  0  0  0  0
    7.3108   -0.8284    0.0000 C   0  0  0  0  0  0  0  0  0  0  0  0
    8.6159   -1.5725    0.0000 O   0  0  0  0  0  0  0  0  0  0  0  0
    7.3168    0.6775    0.0000 O   0  0  0  0  0  0  0  0  0  0  0  0
    6.0117   -3.0784    0.0000 C   0  0  0  0  0  0  0  0  0  0  0  0
    4.7128   -3.8284    0.0000 C   0  0  0  0  0  0  0  0  0  0  0  0
    4.7128   -5.3284    0.0000 C   0  0  0  0  0  0  0  0  0  0  0  0
    3.4137   -6.0784    0.0000 C   0  0  0  0  0  0  0  0  0  0  0  0
    3.4137   -7.5784    0.0000 N   0  0  0  0  0  0  0  0  0  0  0  0
  8  9  1  0  0  0  0
 17 18  1  0  0  0  0
  3  5  1  6  0  0  0
 18 19  2  0  0  0  0
 19  1  1  0  0  0  0
  9 10  1  0  0  0  0
 14 20  1  0  0  0  0
  2  3  1  0  0  0  0
 20 21  2  0  0  0  0
 10 11  1  0  0  0  0
 21 22  1  0  0  0  0
  4  6  1  0  0  0  0
 22 23  2  0  0  0  0
 10 12  2  0  0  0  0
 23 24  1  0  0  0  0
  1  2  1  0  0  0  0
 24 25  2  0  0  0  0
 25 20  1  0  0  0  0
  7 13  2  0  0  0  0
 11 26  1  0  0  0  0
  6  7  1  0  0  0  0
 26 27  1  0  0  0  0
  8 14  1  1  0  0  0
  3  4  1  0  0  0  0
 27 28  1  0  0  0  0
 27 29  2  0  0  0  0
  1 15  2  0  0  0  0
 26 30  1  6  0  0  0
  7  8  1  0  0  0  0
 30 31  1  0  0  0  0
 15 16  1  0  0  0  0
 31 32  1  0  0  0  0
 32 33  1  0  0  0  0
 16 17  2  0  0  0  0
 33 34  1  0  0  0  0
M  END
> <Value>
4.049088491633072

> <Error>
0.0018230538979686628

> <Relation>
=

> <SourceURI>
mol:CHEMBL474781

$$$$

Generated by Molecular Materials Informatics

 30 31  0  0  0  0  0  0  0  0999 V2000
    4.4926   -2.8869    0.0000 C   0  0  0  0  0  0  0  0  0  0  0  0
    5.7917   -2.1369    0.0000 C   0  0  0  0  0  0  0  0  0  0  0  0
    7.0905   -2.8869    0.0000 C   0  0  0  0  0  0  0  0  0  0  0  0
    8.3896   -2.1369    0.0000 C   0  0  0  0  0  0  0  0  0  0  0  0
    7.0905   -4.3869    0.0000 N   0  0  0  0  0  0  0  0  0  0  0  0
    9.6886   -2.8869    0.0000 N   0  0  0  0  0  0  0  0  0  0  0  0
   10.9877   -2.1369    0.0000 C   0  0  0  0  0  0  0  0  0  0  0  0
   12.2866   -2.8869    0.0000 C   0  0  0  0  0  0  0  0  0  0  0  0
   13.5856   -2.1369    0.0000 N   0  0  0  0  0  0  0  0  0  0  0  0
   14.8847   -2.8869    0.0000 C   0  0  0  0  0  0  0  0  0  0  0  0
   16.1835   -2.1369    0.0000 C   0  0  0  0  0  0  0  0  0  0  0  0
   14.8847   -4.3869    0.0000 O   0  0  0  0  0  0  0  0  0  0  0  0
   10.9877   -0.6370    0.0000 O   0  0  0  0  0  0  0  0  0  0  0  0
   12.2860   -4.3856    0.0000 C   0  0  0  0  0  0  0  0  0  0  0  0
    3.1945   -2.1315    0.0000 C   0  0  0  0  0  0  0  0  0  0  0  0
    1.8963   -2.8802    0.0000 C   0  0  0  0  0  0  0  0  0  0  0  0
    1.8956   -4.3818    0.0000 C   0  0  0  0  0  0  0  0  0  0  0  0
    3.2037   -5.1316    0.0000 C   0  0  0  0  0  0  0  0  0  0  0  0
    4.4964   -4.3785    0.0000 C   0  0  0  0  0  0  0  0  0  0  0  0
   10.9866   -5.1350    0.0000 C   0  0  0  0  0  0  0  0  0  0  0  0
    9.6948   -4.3805    0.0000 C   0  0  0  0  0  0  0  0  0  0  0  0
    8.3963   -5.1287    0.0000 C   0  0  0  0  0  0  0  0  0  0  0  0
    8.3949   -6.6303    0.0000 C   0  0  0  0  0  0  0  0  0  0  0  0
    9.7026   -7.3804    0.0000 C   0  0  0  0  0  0  0  0  0  0  0  0
   10.9957   -6.6279    0.0000 C   0  0  0  0  0  0  0  0  0  0  0  0
   17.4826   -2.8869    0.0000 C   0  0  0  0  0  0  0  0  0  0  0  0
   18.7816   -2.1369    0.0000 C   0  0  0  0  0  0  0  0  0  0  0  0
   20.0807   -2.8869    0.0000 C   0  0  0  0  0  0  0  0  0  0  0  0
   21.3796   -2.1369    0.0000 C   0  0  0  0  0  0  0  0  0  0  0  0
   22.6786   -2.8869    0.0000 N   0  0  0  0  0  0  0  0  0  0  0  0
  7  8  1  0  0  0  0
 15 16  1  0  0  0  0
 16 17  2  0  0  0  0
  8  9  1  0  0  0  0
 17 18  1  0  0  0  0
  3  5  1  6  0  0  0
 18 19  2  0  0  0  0
 19  1  1  0  0  0  0
  9 10  1  0  0  0  0
 14 20  1  0  0  0  0
  2  3  1  0  0  0  0
 20 21  2  0  0  0  0
 10 11  1  0  0  0  0
 21 22  1  0  0  0  0
  4  6  1  0  0  0  0
 22 23  2  0  0  0  0
 10 12  2  0  0  0  0
 23 24  1  0  0  0  0
  1  2  1  0  0  0  0
 24 25  2  0  0  0  0
 25 20  1  0  0  0  0
  7 13  2  0  0  0  0
 11 26  1  0  0  0  0
  6  7  1  0  0  0  0
 26 27  1  0  0  0  0
  8 14  1  1  0  0  0
 27 28  1  0  0  0  0
  3  4  1  0  0  0  0
 28 29  1  0  0  0  0
  1 15  2  0  0  0  0
 29 30  1  0  0  0  0
M  END
> <Value>
2.8114089110301386

> <Error>
0.0028178226701669473

> <Relation>
=

> <SourceURI>
mol:CHEMBL514021

$$$$

Generated by Molecular Materials Informatics

 31 32  0  0  0  0  0  0  0  0999 V2000
    4.0133   -6.8258    0.0000 C   0  0  0  0  0  0  0  0  0  0  0  0
    5.3124   -6.0758    0.0000 C   0  0  0  0  0  0  0  0  0  0  0  0
    6.6112   -6.8258    0.0000 C   0  0  0  0  0  0  0  0  0  0  0  0
    7.9103   -6.0758    0.0000 C   0  0  0  0  0  0  0  0  0  0  0  0
    6.6112   -8.3257    0.0000 N   0  0  0  0  0  0  0  0  0  0  0  0
    9.2093   -6.8258    0.0000 N   0  0  0  0  0  0  0  0  0  0  0  0
   10.5084   -6.0758    0.0000 C   0  0  0  0  0  0  0  0  0  0  0  0
   11.8073   -6.8258    0.0000 C   0  0  0  0  0  0  0  0  0  0  0  0
   13.1063   -6.0758    0.0000 N   0  0  0  0  0  0  0  0  0  0  0  0
   14.4054   -6.8258    0.0000 C   0  0  0  0  0  0  0  0  0  0  0  0
   15.7042   -6.0758    0.0000 N   0  0  0  0  0  0  0  0  0  0  0  0
   14.4054   -8.3257    0.0000 O   0  0  0  0  0  0  0  0  0  0  0  0
   10.5084   -4.5758    0.0000 O   0  0  0  0  0  0  0  0  0  0  0  0
   11.8067   -8.3244    0.0000 C   0  0  0  0  0  0  0  0  0  0  0  0
    2.7152   -6.0703    0.0000 C   0  0  0  0  0  0  0  0  0  0  0  0
    1.4170   -6.8190    0.0000 C   0  0  0  0  0  0  0  0  0  0  0  0
    1.4163   -8.3206    0.0000 C   0  0  0  0  0  0  0  0  0  0  0  0
    2.7244   -9.0704    0.0000 C   0  0  0  0  0  0  0  0  0  0  0  0
    4.0171   -8.3174    0.0000 C   0  0  0  0  0  0  0  0  0  0  0  0
   10.5073   -9.0739    0.0000 C   0  0  0  0  0  0  0  0  0  0  0  0
    9.2155   -8.3194    0.0000 C   0  0  0  0  0  0  0  0  0  0  0  0
    7.9170   -9.0675    0.0000 C   0  0  0  0  0  0  0  0  0  0  0  0
    7.9156  -10.5691    0.0000 C   0  0  0  0  0  0  0  0  0  0  0  0
    9.2233  -11.3193    0.0000 C   0  0  0  0  0  0  0  0  0  0  0  0
   10.5164  -10.5667    0.0000 C   0  0  0  0  0  0  0  0  0  0  0  0
   17.0033   -6.8258    0.0000 C   0  0  0  0  0  0  0  0  0  0  0  0
   18.3023   -6.0758    0.0000 C   0  0  0  0  0  0  0  0  0  0  0  0
   19.6072   -6.8198    0.0000 O   0  0  0  0  0  0  0  0  0  0  0  0
   18.3082   -4.5698    0.0000 O   0  0  0  0  0  0  0  0  0  0  0  0
   17.0033   -8.3257    0.0000 C   0  0  0  0  0  0  0  0  0  0  0  0
   18.3023   -9.0757    0.0000 S   0  0  0  0  0  0  0  0  0  0  0  0
 15 16  1  0  0  0  0
 16 17  2  0  0  0  0
  8  9  1  0  0  0  0
 17 18  1  0  0  0  0
  3  5  1  6  0  0  0
 18 19  2  0  0  0  0
 19  1  1  0  0  0  0
  9 10  1  0  0  0  0
 14 20  1  0  0  0  0
  2  3  1  0  0  0  0
 20 21  2  0  0  0  0
 10 11  1  0  0  0  0
 21 22  1  0  0  0  0
  4  6  1  0  0  0  0
 22 23  2  0  0  0  0
 10 12  2  0  0  0  0
 23 24  1  0  0  0  0
  1  2  1  0  0  0  0
 24 25  2  0  0  0  0
 25 20  1  0  0  0  0
  7 13  2  0  0  0  0
 26 11  1  1  0  0  0
  6  7  1  0  0  0  0
 26 27  1  0  0  0  0
  8 14  1  1  0  0  0
  3  4  1  0  0  0  0
 27 28  1  0  0  0  0
 27 29  2  0  0  0  0
  1 15  2  0  0  0  0
 26 30  1  0  0  0  0
  7  8  1  0  0  0  0
 30 31  1  0  0  0  0
M  END
> <Value>
4.3090174572034705

> <Error>
0.0019651199416630405

> <Relation>
=

> <SourceURI>
mol:CHEMBL475798

$$$$

Generated by Molecular Materials Informatics

 33 34  0  0  0  0  0  0  0  0999 V2000
   14.7965   -7.4798    0.0000 C   0  0  0  0  0  0  0  0  0  0  0  0
   16.0955   -6.7298    0.0000 C   0  0  0  0  0  0  0  0  0  0  0  0
   17.3946   -7.4798    0.0000 C   0  0  0  0  0  0  0  0  0  0  0  0
   18.6935   -6.7298    0.0000 C   0  0  0  0  0  0  0  0  0  0  0  0
   17.3946   -8.9797    0.0000 N   0  0  0  0  0  0  0  0  0  0  0  0
   19.9926   -7.4798    0.0000 N   0  0  0  0  0  0  0  0  0  0  0  0
   21.2916   -6.7298    0.0000 C   0  0  0  0  0  0  0  0  0  0  0  0
   22.5907   -7.4798    0.0000 C   0  0  0  0  0  0  0  0  0  0  0  0
   23.8896   -6.7298    0.0000 N   0  0  0  0  0  0  0  0  0  0  0  0
   25.1887   -7.4798    0.0000 C   0  0  0  0  0  0  0  0  0  0  0  0
   26.4878   -6.7298    0.0000 N   0  0  0  0  0  0  0  0  0  0  0  0
   25.1887   -8.9797    0.0000 O   0  0  0  0  0  0  0  0  0  0  0  0
   21.2916   -5.2298    0.0000 O   0  0  0  0  0  0  0  0  0  0  0  0
   22.5900   -8.9787    0.0000 C   0  0  0  0  0  0  0  0  0  0  0  0
   13.4983   -6.7245    0.0000 C   0  0  0  0  0  0  0  0  0  0  0  0
   12.2001   -7.4732    0.0000 C   0  0  0  0  0  0  0  0  0  0  0  0
   12.1994   -8.9748    0.0000 C   0  0  0  0  0  0  0  0  0  0  0  0
   13.5076   -9.7245    0.0000 C   0  0  0  0  0  0  0  0  0  0  0  0
   14.8003   -8.9714    0.0000 C   0  0  0  0  0  0  0  0  0  0  0  0
   21.2907   -9.7281    0.0000 C   0  0  0  0  0  0  0  0  0  0  0  0
   19.9988   -8.9734    0.0000 C   0  0  0  0  0  0  0  0  0  0  0  0
   18.7002   -9.7217    0.0000 C   0  0  0  0  0  0  0  0  0  0  0  0
   18.6988  -11.2232    0.0000 C   0  0  0  0  0  0  0  0  0  0  0  0
   20.0068  -11.9735    0.0000 C   0  0  0  0  0  0  0  0  0  0  0  0
   21.2998  -11.2210    0.0000 C   0  0  0  0  0  0  0  0  0  0  0  0
   27.7866   -7.4798    0.0000 C   0  0  0  0  0  0  0  0  0  0  0  0
   29.0857   -6.7298    0.0000 C   0  0  0  0  0  0  0  0  0  0  0  0
   30.3908   -7.4739    0.0000 O   0  0  0  0  0  0  0  0  0  0  0  0
   29.0917   -5.2240    0.0000 O   0  0  0  0  0  0  0  0  0  0  0  0
   27.7866   -8.9797    0.0000 C   0  0  0  0  0  0  0  0  0  0  0  0
   29.0857   -9.7297    0.0000 C   0  0  0  0  0  0  0  0  0  0  0  0
   29.0857  -11.2297    0.0000 C   0  0  0  0  0  0  0  0  0  0  0  0
   30.3848   -8.9797    0.0000 C   0  0  0  0  0  0  0  0  0  0  0  0
 16 17  2  0  0  0  0
  8  9  1  0  0  0  0
 17 18  1  0  0  0  0
  3  5  1  6  0  0  0
 18 19  2  0  0  0  0
 19  1  1  0  0  0  0
  9 10  1  0  0  0  0
 14 20  1  0  0  0  0
  2  3  1  0  0  0  0
 20 21  2  0  0  0  0
 10 11  1  0  0  0  0
 21 22  1  0  0  0  0
  4  6  1  0  0  0  0
 22 23  2  0  0  0  0
 10 12  2  0  0  0  0
 23 24  1  0  0  0  0
  1  2  1  0  0  0  0
 24 25  2  0  0  0  0
 25 20  1  0  0  0  0
  7 13  2  0  0  0  0
 11 26  1  0  0  0  0
  6  7  1  0  0  0  0
 26 27  1  0  0  0  0
  8 14  1  1  0  0  0
  3  4  1  0  0  0  0
 27 28  1  0  0  0  0
 27 29  2  0  0  0  0
  1 15  2  0  0  0  0
 26 30  1  6  0  0  0
  7  8  1  0  0  0  0
 30 31  1  0  0  0  0
 15 16  1  0  0  0  0
 31 32  1  0  0  0  0
 31 33  1  0  0  0  0
M  END
> <Value>
3.741280711630969

> <Error>
0.002561443018433973

> <Relation>
=

> <SourceURI>
mol:CHEMBL473626

$$$$

Generated by Molecular Materials Informatics

 28 29  0  0  0  0  0  0  0  0999 V2000
    5.2977  -12.0994    0.0000 C   0  0  0  0  0  0  0  0  0  0  0  0
    6.5968  -11.3494    0.0000 C   0  0  0  0  0  0  0  0  0  0  0  0
    7.8959  -12.0994    0.0000 C   0  0  0  0  0  0  0  0  0  0  0  0
    9.1948  -11.3494    0.0000 C   0  0  0  0  0  0  0  0  0  0  0  0
    7.8959  -13.5994    0.0000 N   0  0  0  0  0  0  0  0  0  0  0  0
   10.4939  -12.0994    0.0000 N   0  0  0  0  0  0  0  0  0  0  0  0
   11.7930  -11.3494    0.0000 C   0  0  0  0  0  0  0  0  0  0  0  0
   13.0921  -12.0994    0.0000 C   0  0  0  0  0  0  0  0  0  0  0  0
   14.3910  -11.3494    0.0000 N   0  0  0  0  0  0  0  0  0  0  0  0
   15.6901  -12.0994    0.0000 C   0  0  0  0  0  0  0  0  0  0  0  0
   16.9892  -11.3494    0.0000 C   0  0  0  0  0  0  0  0  0  0  0  0
   15.6901  -13.5994    0.0000 O   0  0  0  0  0  0  0  0  0  0  0  0
   11.7930   -9.8494    0.0000 O   0  0  0  0  0  0  0  0  0  0  0  0
   13.0914  -13.5981    0.0000 C   0  0  0  0  0  0  0  0  0  0  0  0
    3.9995  -11.3439    0.0000 C   0  0  0  0  0  0  0  0  0  0  0  0
    2.7014  -12.0927    0.0000 C   0  0  0  0  0  0  0  0  0  0  0  0
    2.7006  -13.5943    0.0000 C   0  0  0  0  0  0  0  0  0  0  0  0
    4.0088  -14.3441    0.0000 C   0  0  0  0  0  0  0  0  0  0  0  0
    5.3015  -13.5910    0.0000 C   0  0  0  0  0  0  0  0  0  0  0  0
   11.7921  -14.3476    0.0000 C   0  0  0  0  0  0  0  0  0  0  0  0
   10.5001  -13.5930    0.0000 C   0  0  0  0  0  0  0  0  0  0  0  0
    9.2015  -14.3412    0.0000 C   0  0  0  0  0  0  0  0  0  0  0  0
    9.2001  -15.8428    0.0000 C   0  0  0  0  0  0  0  0  0  0  0  0
   10.5081  -16.5930    0.0000 C   0  0  0  0  0  0  0  0  0  0  0  0
   11.8012  -15.8405    0.0000 C   0  0  0  0  0  0  0  0  0  0  0  0
   18.2881  -12.0994    0.0000 C   0  0  0  0  0  0  0  0  0  0  0  0
   19.5872  -11.3494    0.0000 C   0  0  0  0  0  0  0  0  0  0  0  0
   20.8863  -12.0994    0.0000 Cl  0  0  0  0  0  0  0  0  0  0  0  0
  3  4  1  0  0  0  0
  1 15  2  0  0  0  0
  7  8  1  0  0  0  0
 15 16  1  0  0  0  0
 16 17  2  0  0  0  0
  8  9  1  0  0  0  0
 17 18  1  0  0  0  0
  3  5  1  6  0  0  0
 18 19  2  0  0  0  0
 19  1  1  0  0  0  0
  9 10  1  0  0  0  0
 14 20  1  0  0  0  0
  2  3  1  0  0  0  0
 20 21  2  0  0  0  0
 10 11  1  0  0  0  0
 21 22  1  0  0  0  0
  4  6  1  0  0  0  0
 22 23  2  0  0  0  0
 10 12  2  0  0  0  0
 23 24  1  0  0  0  0
  1  2  1  0  0  0  0
 24 25  2  0  0  0  0
 25 20  1  0  0  0  0
  7 13  2  0  0  0  0
 11 26  1  0  0  0  0
  6  7  1  0  0  0  0
 26 27  1  0  0  0  0
  8 14  1  1  0  0  0
 27 28  1  0  0  0  0
M  END
> <Value>
3.1596960607837845

> <Error>
6.078795861492736E-4

> <Relation>
=

> <SourceURI>
mol:CHEMBL473633

$$$$

Generated by Molecular Materials Informatics

 32 34  0  0  0  0  0  0  0  0999 V2000
   -7.2931  -17.8086    0.0000 C   0  0  0  0  0  0  0  0  0  0  0  0
   -5.9942  -17.0586    0.0000 C   0  0  0  0  0  0  0  0  0  0  0  0
   -4.6951  -17.8086    0.0000 C   0  0  0  0  0  0  0  0  0  0  0  0
   -3.3960  -17.0586    0.0000 C   0  0  0  0  0  0  0  0  0  0  0  0
   -4.6951  -19.3086    0.0000 N   0  0  0  0  0  0  0  0  0  0  0  0
   -2.0970  -17.8086    0.0000 N   0  0  0  0  0  0  0  0  0  0  0  0
   -0.7980  -17.0586    0.0000 C   0  0  0  0  0  0  0  0  0  0  0  0
    0.5010  -17.8086    0.0000 C   0  0  0  0  0  0  0  0  0  0  0  0
    1.8001  -17.0586    0.0000 N   0  0  0  0  0  0  0  0  0  0  0  0
    3.0990  -17.8086    0.0000 C   0  0  0  0  0  0  0  0  0  0  0  0
    4.3981  -17.0586    0.0000 C   0  0  0  0  0  0  0  0  0  0  0  0
    3.0990  -19.3086    0.0000 O   0  0  0  0  0  0  0  0  0  0  0  0
   -0.7980  -15.5586    0.0000 O   0  0  0  0  0  0  0  0  0  0  0  0
    0.5003  -19.3075    0.0000 C   0  0  0  0  0  0  0  0  0  0  0  0
   -8.5913  -17.0533    0.0000 C   0  0  0  0  0  0  0  0  0  0  0  0
   -9.8895  -17.8020    0.0000 C   0  0  0  0  0  0  0  0  0  0  0  0
   -9.8904  -19.3037    0.0000 C   0  0  0  0  0  0  0  0  0  0  0  0
   -8.5822  -20.0533    0.0000 C   0  0  0  0  0  0  0  0  0  0  0  0
   -7.2893  -19.3002    0.0000 C   0  0  0  0  0  0  0  0  0  0  0  0
   -0.7990  -20.0569    0.0000 C   0  0  0  0  0  0  0  0  0  0  0  0
   -2.0910  -19.3022    0.0000 C   0  0  0  0  0  0  0  0  0  0  0  0
   -3.3893  -20.0506    0.0000 C   0  0  0  0  0  0  0  0  0  0  0  0
   -3.3908  -21.5520    0.0000 C   0  0  0  0  0  0  0  0  0  0  0  0
   -2.0830  -22.3024    0.0000 C   0  0  0  0  0  0  0  0  0  0  0  0
   -0.7899  -21.5499    0.0000 C   0  0  0  0  0  0  0  0  0  0  0  0
    5.6954  -17.8157    0.0000 C   0  0  0  0  0  0  0  0  0  0  0  0
    6.9936  -17.0670    0.0000 C   0  0  0  0  0  0  0  0  0  0  0  0
    6.9943  -15.5653    0.0000 C   0  0  0  0  0  0  0  0  0  0  0  0
    5.6861  -14.8157    0.0000 C   0  0  0  0  0  0  0  0  0  0  0  0
    4.3934  -15.5688    0.0000 C   0  0  0  0  0  0  0  0  0  0  0  0
    5.6916  -19.3157    0.0000 Cl  0  0  0  0  0  0  0  0  0  0  0  0
    8.2923  -14.8135    0.0000 Cl  0  0  0  0  0  0  0  0  0  0  0  0
 16 17  2  0  0  0  0
  8  9  1  0  0  0  0
 17 18  1  0  0  0  0
  3  5  1  6  0  0  0
 18 19  2  0  0  0  0
 19  1  1  0  0  0  0
  9 10  1  0  0  0  0
 14 20  1  0  0  0  0
  2  3  1  0  0  0  0
 20 21  2  0  0  0  0
 10 11  1  0  0  0  0
 21 22  1  0  0  0  0
  4  6  1  0  0  0  0
 22 23  2  0  0  0  0
 10 12  2  0  0  0  0
 23 24  1  0  0  0  0
  1  2  1  0  0  0  0
 24 25  2  0  0  0  0
 25 20  1  0  0  0  0
  7 13  2  0  0  0  0
 11 26  2  0  0  0  0
  6  7  1  0  0  0  0
 26 27  1  0  0  0  0
  8 14  1  1  0  0  0
 27 28  2  0  0  0  0
  3  4  1  0  0  0  0
 28 29  1  0  0  0  0
  1 15  2  0  0  0  0
 29 30  2  0  0  0  0
 30 11  1  0  0  0  0
  7  8  1  0  0  0  0
 26 31  1  0  0  0  0
 15 16  1  0  0  0  0
 28 32  1  0  0  0  0
M  END
> <Value>
2.6476961084665027

> <Error>
0.004607782511532932

> <Relation>
=

> <SourceURI>
mol:CHEMBL475644

$$$$

Generated by Molecular Materials Informatics

 32 34  0  0  0  0  0  0  0  0999 V2000
   -7.8308  -23.3878    0.0000 C   0  0  0  0  0  0  0  0  0  0  0  0
   -6.5317  -22.6378    0.0000 C   0  0  0  0  0  0  0  0  0  0  0  0
   -5.2326  -23.3878    0.0000 C   0  0  0  0  0  0  0  0  0  0  0  0
   -3.9337  -22.6378    0.0000 C   0  0  0  0  0  0  0  0  0  0  0  0
   -5.2326  -24.8878    0.0000 N   0  0  0  0  0  0  0  0  0  0  0  0
   -2.6346  -23.3878    0.0000 N   0  0  0  0  0  0  0  0  0  0  0  0
   -1.3356  -22.6378    0.0000 C   0  0  0  0  0  0  0  0  0  0  0  0
   -0.0365  -23.3878    0.0000 C   0  0  0  0  0  0  0  0  0  0  0  0
    1.2624  -22.6378    0.0000 N   0  0  0  0  0  0  0  0  0  0  0  0
    2.5615  -23.3878    0.0000 C   0  0  0  0  0  0  0  0  0  0  0  0
    3.8606  -22.6378    0.0000 C   0  0  0  0  0  0  0  0  0  0  0  0
    2.5615  -24.8878    0.0000 O   0  0  0  0  0  0  0  0  0  0  0  0
   -1.3356  -21.1379    0.0000 O   0  0  0  0  0  0  0  0  0  0  0  0
   -0.0372  -24.8865    0.0000 C   0  0  0  0  0  0  0  0  0  0  0  0
   -9.1289  -22.6326    0.0000 C   0  0  0  0  0  0  0  0  0  0  0  0
  -10.4313  -23.3813    0.0000 C   0  0  0  0  0  0  0  0  0  0  0  0
  -10.4306  -24.8827    0.0000 C   0  0  0  0  0  0  0  0  0  0  0  0
   -9.1197  -25.6325    0.0000 C   0  0  0  0  0  0  0  0  0  0  0  0
   -7.8270  -24.8795    0.0000 C   0  0  0  0  0  0  0  0  0  0  0  0
   -1.3365  -25.6360    0.0000 C   0  0  0  0  0  0  0  0  0  0  0  0
   -2.6285  -24.8815    0.0000 C   0  0  0  0  0  0  0  0  0  0  0  0
   -3.9270  -25.6296    0.0000 C   0  0  0  0  0  0  0  0  0  0  0  0
   -3.9285  -27.1313    0.0000 C   0  0  0  0  0  0  0  0  0  0  0  0
   -2.6205  -27.8814    0.0000 C   0  0  0  0  0  0  0  0  0  0  0  0
   -1.3274  -27.1291    0.0000 C   0  0  0  0  0  0  0  0  0  0  0  0
    5.1578  -23.3949    0.0000 C   0  0  0  0  0  0  0  0  0  0  0  0
    6.4558  -22.6462    0.0000 C   0  0  0  0  0  0  0  0  0  0  0  0
    6.4567  -21.1446    0.0000 C   0  0  0  0  0  0  0  0  0  0  0  0
    5.1486  -20.3948    0.0000 C   0  0  0  0  0  0  0  0  0  0  0  0
    3.8557  -21.1479    0.0000 C   0  0  0  0  0  0  0  0  0  0  0  0
    7.7547  -20.3928    0.0000 O   0  0  0  0  0  0  0  0  0  0  0  0
    9.0547  -21.1411    0.0000 C   0  0  0  0  0  0  0  0  0  0  0  0
 16 17  2  0  0  0  0
  8  9  1  0  0  0  0
 17 18  1  0  0  0  0
  3  5  1  6  0  0  0
 18 19  2  0  0  0  0
 19  1  1  0  0  0  0
  9 10  1  0  0  0  0
 14 20  1  0  0  0  0
  2  3  1  0  0  0  0
 20 21  2  0  0  0  0
 10 11  1  0  0  0  0
 21 22  1  0  0  0  0
  4  6  1  0  0  0  0
 22 23  2  0  0  0  0
 10 12  2  0  0  0  0
 23 24  1  0  0  0  0
  1  2  1  0  0  0  0
 24 25  2  0  0  0  0
 25 20  1  0  0  0  0
  7 13  2  0  0  0  0
 11 26  2  0  0  0  0
  6  7  1  0  0  0  0
 26 27  1  0  0  0  0
  8 14  1  1  0  0  0
 27 28  2  0  0  0  0
  3  4  1  0  0  0  0
 28 29  1  0  0  0  0
  1 15  2  0  0  0  0
 29 30  2  0  0  0  0
 30 11  1  0  0  0  0
  7  8  1  0  0  0  0
 28 31  1  0  0  0  0
 15 16  1  0  0  0  0
 31 32  1  0  0  0  0
M  END
> <Value>
3.760225143172147

> <Error>
4.5027197475899783E-4

> <Relation>
=

> <SourceURI>
mol:CHEMBL475645

$$$$

Generated by Molecular Materials Informatics

 33 35  0  0  0  0  0  0  0  0999 V2000
   15.1547    1.6063    0.0000 C   0  0  0  0  0  0  0  0  0  0  0  0
   16.4538    2.3563    0.0000 C   0  0  0  0  0  0  0  0  0  0  0  0
   17.7529    1.6063    0.0000 C   0  0  0  0  0  0  0  0  0  0  0  0
   19.0518    2.3563    0.0000 C   0  0  0  0  0  0  0  0  0  0  0  0
   17.7529    0.1063    0.0000 N   0  0  0  0  0  0  0  0  0  0  0  0
   20.3509    1.6063    0.0000 N   0  0  0  0  0  0  0  0  0  0  0  0
   21.6499    2.3563    0.0000 C   0  0  0  0  0  0  0  0  0  0  0  0
   22.9490    1.6063    0.0000 C   0  0  0  0  0  0  0  0  0  0  0  0
   24.2479    2.3563    0.0000 N   0  0  0  0  0  0  0  0  0  0  0  0
   25.5470    1.6063    0.0000 C   0  0  0  0  0  0  0  0  0  0  0  0
   26.8461    2.3563    0.0000 C   0  0  0  0  0  0  0  0  0  0  0  0
   25.5470    0.1063    0.0000 O   0  0  0  0  0  0  0  0  0  0  0  0
   21.6499    3.8563    0.0000 O   0  0  0  0  0  0  0  0  0  0  0  0
   22.9483    0.1076    0.0000 C   0  0  0  0  0  0  0  0  0  0  0  0
   13.8566    2.3617    0.0000 C   0  0  0  0  0  0  0  0  0  0  0  0
   12.5584    1.6130    0.0000 C   0  0  0  0  0  0  0  0  0  0  0  0
   12.5577    0.1114    0.0000 C   0  0  0  0  0  0  0  0  0  0  0  0
   13.8658   -0.6384    0.0000 C   0  0  0  0  0  0  0  0  0  0  0  0
   15.1585    0.1147    0.0000 C   0  0  0  0  0  0  0  0  0  0  0  0
   21.6490   -0.6419    0.0000 C   0  0  0  0  0  0  0  0  0  0  0  0
   20.3570    0.1127    0.0000 C   0  0  0  0  0  0  0  0  0  0  0  0
   19.0585   -0.6355    0.0000 C   0  0  0  0  0  0  0  0  0  0  0  0
   19.0570   -2.1371    0.0000 C   0  0  0  0  0  0  0  0  0  0  0  0
   20.3650   -2.8873    0.0000 C   0  0  0  0  0  0  0  0  0  0  0  0
   21.6581   -2.1348    0.0000 C   0  0  0  0  0  0  0  0  0  0  0  0
   28.1433    1.5994    0.0000 C   0  0  0  0  0  0  0  0  0  0  0  0
   29.4413    2.3481    0.0000 C   0  0  0  0  0  0  0  0  0  0  0  0
   29.4422    3.8497    0.0000 C   0  0  0  0  0  0  0  0  0  0  0  0
   28.1340    4.5994    0.0000 C   0  0  0  0  0  0  0  0  0  0  0  0
   26.8411    3.8463    0.0000 C   0  0  0  0  0  0  0  0  0  0  0  0
   30.7456    4.6039    0.0000 N   0  3  0  0  0  0  0  0  0  0  0  0
   30.7436    6.1088    0.0000 O   0  0  0  0  0  0  0  0  0  0  0  0
   32.0456    3.8555    0.0000 O   0  5  0  0  0  0  0  0  0  0  0  0
 16 17  2  0  0  0  0
  8  9  1  0  0  0  0
 17 18  1  0  0  0  0
  3  5  1  6  0  0  0
 18 19  2  0  0  0  0
 19  1  1  0  0  0  0
  9 10  1  0  0  0  0
 14 20  1  0  0  0  0
  2  3  1  0  0  0  0
 20 21  2  0  0  0  0
 10 11  1  0  0  0  0
 21 22  1  0  0  0  0
  4  6  1  0  0  0  0
 22 23  2  0  0  0  0
 10 12  2  0  0  0  0
 23 24  1  0  0  0  0
  1  2  1  0  0  0  0
 24 25  2  0  0  0  0
 25 20  1  0  0  0  0
  7 13  2  0  0  0  0
 11 26  2  0  0  0  0
  6  7  1  0  0  0  0
 26 27  1  0  0  0  0
  8 14  1  1  0  0  0
 27 28  2  0  0  0  0
  3  4  1  0  0  0  0
 28 29  1  0  0  0  0
  1 15  2  0  0  0  0
 29 30  2  0  0  0  0
 30 11  1  0  0  0  0
  7  8  1  0  0  0  0
 15 16  1  0  0  0  0
 31 32  2  0  0  0  0
 31 33  1  0  0  0  0
 28 31  1  0  0  0  0
M  CHG  2  31   1  33  -1
M  END
> <Value>
2.858378589175901

> <Error>
0.003242824544503531

> <Relation>
=

> <SourceURI>
mol:CHEMBL474618

$$$$

Generated by Molecular Materials Informatics

 33 34  0  0  0  0  0  0  0  0999 V2000
   -7.0826   -7.1430    0.0000 C   0  0  0  0  0  0  0  0  0  0  0  0
   -5.7837   -6.3930    0.0000 C   0  0  0  0  0  0  0  0  0  0  0  0
   -4.4846   -7.1430    0.0000 C   0  0  0  0  0  0  0  0  0  0  0  0
   -3.1856   -6.3930    0.0000 C   0  0  0  0  0  0  0  0  0  0  0  0
   -4.4846   -8.6430    0.0000 N   0  0  0  0  0  0  0  0  0  0  0  0
   -1.8865   -7.1430    0.0000 N   0  0  0  0  0  0  0  0  0  0  0  0
   -0.5876   -6.3930    0.0000 C   0  0  0  0  0  0  0  0  0  0  0  0
    0.7115   -7.1430    0.0000 C   0  0  0  0  0  0  0  0  0  0  0  0
    2.0106   -6.3930    0.0000 N   0  0  0  0  0  0  0  0  0  0  0  0
    3.3095   -7.1430    0.0000 C   0  0  0  0  0  0  0  0  0  0  0  0
    4.6086   -6.3930    0.0000 N   0  0  0  0  0  0  0  0  0  0  0  0
    3.3095   -8.6430    0.0000 O   0  0  0  0  0  0  0  0  0  0  0  0
   -0.5876   -4.8930    0.0000 O   0  0  0  0  0  0  0  0  0  0  0  0
    0.7108   -8.6418    0.0000 C   0  0  0  0  0  0  0  0  0  0  0  0
   -8.3808   -6.3876    0.0000 C   0  0  0  0  0  0  0  0  0  0  0  0
   -9.6790   -7.1363    0.0000 C   0  0  0  0  0  0  0  0  0  0  0  0
   -9.6799   -8.6380    0.0000 C   0  0  0  0  0  0  0  0  0  0  0  0
   -8.3717   -9.3878    0.0000 C   0  0  0  0  0  0  0  0  0  0  0  0
   -7.0788   -8.6347    0.0000 C   0  0  0  0  0  0  0  0  0  0  0  0
   -0.5885   -9.3912    0.0000 C   0  0  0  0  0  0  0  0  0  0  0  0
   -1.8805   -8.6367    0.0000 C   0  0  0  0  0  0  0  0  0  0  0  0
   -3.1788   -9.3849    0.0000 C   0  0  0  0  0  0  0  0  0  0  0  0
   -3.1803  -10.8865    0.0000 C   0  0  0  0  0  0  0  0  0  0  0  0
   -1.8725  -11.6367    0.0000 C   0  0  0  0  0  0  0  0  0  0  0  0
   -0.5794  -10.8841    0.0000 C   0  0  0  0  0  0  0  0  0  0  0  0
    5.9077   -7.1430    0.0000 C   0  0  0  0  0  0  0  0  0  0  0  0
    7.2066   -6.3930    0.0000 C   0  0  0  0  0  0  0  0  0  0  0  0
    5.9077   -8.6430    0.0000 C   0  0  0  0  0  0  0  0  0  0  0  0
    8.5117   -7.1370    0.0000 O   0  0  0  0  0  0  0  0  0  0  0  0
    7.2126   -4.8870    0.0000 O   0  0  0  0  0  0  0  0  0  0  0  0
    7.2066   -9.3931    0.0000 C   0  0  0  0  0  0  0  0  0  0  0  0
    7.2066  -10.8931    0.0000 S   0  0  0  0  0  0  0  0  0  0  0  0
    7.2066  -12.3931    0.0000 C   0  0  0  0  0  0  0  0  0  0  0  0
  8  9  1  0  0  0  0
 17 18  1  0  0  0  0
  3  5  1  6  0  0  0
 18 19  2  0  0  0  0
 19  1  1  0  0  0  0
  9 10  1  0  0  0  0
 14 20  1  0  0  0  0
  2  3  1  0  0  0  0
 20 21  2  0  0  0  0
 10 11  1  0  0  0  0
 21 22  1  0  0  0  0
  4  6  1  0  0  0  0
 22 23  2  0  0  0  0
 10 12  2  0  0  0  0
 23 24  1  0  0  0  0
  1  2  1  0  0  0  0
 24 25  2  0  0  0  0
 25 20  1  0  0  0  0
  7 13  2  0  0  0  0
 11 26  1  0  0  0  0
  6  7  1  0  0  0  0
 26 27  1  0  0  0  0
  8 14  1  1  0  0  0
 26 28  1  6  0  0  0
  3  4  1  0  0  0  0
  1 15  2  0  0  0  0
 27 29  1  0  0  0  0
 27 30  2  0  0  0  0
  7  8  1  0  0  0  0
 28 31  1  0  0  0  0
 15 16  1  0  0  0  0
 31 32  1  0  0  0  0
 32 33  1  0  0  0  0
 16 17  2  0  0  0  0
M  END
> <Value>
5.052758648851624

> <Error>
0.005517357996416727

> <Relation>
=

> <SourceURI>
mol:CHEMBL474782

$$$$

Generated by Molecular Materials Informatics

 33 34  0  0  0  0  0  0  0  0999 V2000
   -7.1161  -12.2547    0.0000 C   0  0  0  0  0  0  0  0  0  0  0  0
   -5.8170  -11.5048    0.0000 C   0  0  0  0  0  0  0  0  0  0  0  0
   -4.5179  -12.2547    0.0000 C   0  0  0  0  0  0  0  0  0  0  0  0
   -3.2190  -11.5048    0.0000 C   0  0  0  0  0  0  0  0  0  0  0  0
   -4.5179  -13.7547    0.0000 N   0  0  0  0  0  0  0  0  0  0  0  0
   -1.9199  -12.2547    0.0000 N   0  0  0  0  0  0  0  0  0  0  0  0
   -0.6209  -11.5048    0.0000 C   0  0  0  0  0  0  0  0  0  0  0  0
    0.6782  -12.2547    0.0000 C   0  0  0  0  0  0  0  0  0  0  0  0
    1.9771  -11.5048    0.0000 N   0  0  0  0  0  0  0  0  0  0  0  0
    3.2762  -12.2547    0.0000 C   0  0  0  0  0  0  0  0  0  0  0  0
    4.5753  -11.5048    0.0000 N   0  0  0  0  0  0  0  0  0  0  0  0
    3.2762  -13.7547    0.0000 O   0  0  0  0  0  0  0  0  0  0  0  0
   -0.6209  -10.0048    0.0000 O   0  0  0  0  0  0  0  0  0  0  0  0
    0.6775  -13.7537    0.0000 C   0  0  0  0  0  0  0  0  0  0  0  0
   -8.4143  -11.4995    0.0000 C   0  0  0  0  0  0  0  0  0  0  0  0
   -9.7125  -12.2482    0.0000 C   0  0  0  0  0  0  0  0  0  0  0  0
   -9.7132  -13.7498    0.0000 C   0  0  0  0  0  0  0  0  0  0  0  0
   -8.4050  -14.4995    0.0000 C   0  0  0  0  0  0  0  0  0  0  0  0
   -7.1123  -13.7464    0.0000 C   0  0  0  0  0  0  0  0  0  0  0  0
   -0.6218  -14.5031    0.0000 C   0  0  0  0  0  0  0  0  0  0  0  0
   -1.9138  -13.7484    0.0000 C   0  0  0  0  0  0  0  0  0  0  0  0
   -3.2123  -14.4967    0.0000 C   0  0  0  0  0  0  0  0  0  0  0  0
   -3.2138  -15.9982    0.0000 C   0  0  0  0  0  0  0  0  0  0  0  0
   -1.9058  -16.7486    0.0000 C   0  0  0  0  0  0  0  0  0  0  0  0
   -0.6127  -15.9960    0.0000 C   0  0  0  0  0  0  0  0  0  0  0  0
    5.8742  -12.2547    0.0000 C   0  0  0  0  0  0  0  0  0  0  0  0
    7.1733  -11.5048    0.0000 C   0  0  0  0  0  0  0  0  0  0  0  0
    8.4784  -12.2489    0.0000 O   0  0  0  0  0  0  0  0  0  0  0  0
    7.1793   -9.9989    0.0000 O   0  0  0  0  0  0  0  0  0  0  0  0
    5.8742  -13.7547    0.0000 C   0  0  0  0  0  0  0  0  0  0  0  0
    7.1733  -14.5047    0.0000 C   0  0  0  0  0  0  0  0  0  0  0  0
    7.1733  -16.0047    0.0000 C   0  0  0  0  0  0  0  0  0  0  0  0
    4.5753  -14.5047    0.0000 C   0  0  0  0  0  0  0  0  0  0  0  0
 16 17  2  0  0  0  0
  8  9  1  0  0  0  0
 17 18  1  0  0  0  0
  3  5  1  6  0  0  0
 18 19  2  0  0  0  0
 19  1  1  0  0  0  0
  9 10  1  0  0  0  0
 14 20  1  0  0  0  0
  2  3  1  0  0  0  0
 20 21  2  0  0  0  0
 10 11  1  0  0  0  0
 21 22  1  0  0  0  0
  4  6  1  0  0  0  0
 22 23  2  0  0  0  0
 10 12  2  0  0  0  0
 23 24  1  0  0  0  0
  1  2  1  0  0  0  0
 24 25  2  0  0  0  0
 25 20  1  0  0  0  0
  7 13  2  0  0  0  0
 11 26  1  0  0  0  0
  6  7  1  0  0  0  0
 26 27  1  6  0  0  0
  8 14  1  1  0  0  0
  3  4  1  0  0  0  0
 27 28  1  0  0  0  0
 27 29  2  0  0  0  0
  1 15  2  0  0  0  0
 26 30  1  0  0  0  0
  7  8  1  0  0  0  0
 30 31  1  0  0  0  0
 15 16  1  0  0  0  0
 31 32  1  0  0  0  0
 30 33  1  6  0  0  0
M  END
> <Value>
3.800808933962945

> <Error>
0.0016178720575208416

> <Relation>
=

> <SourceURI>
mol:CHEMBL516363

$$$$

Generated by Molecular Materials Informatics

 32 34  0  0  0  0  0  0  0  0999 V2000
    4.6197  -18.7893    0.0000 C   0  0  0  0  0  0  0  0  0  0  0  0
    5.9187  -18.0392    0.0000 C   0  0  0  0  0  0  0  0  0  0  0  0
    7.2179  -18.7893    0.0000 C   0  0  0  0  0  0  0  0  0  0  0  0
    8.5170  -18.0392    0.0000 C   0  0  0  0  0  0  0  0  0  0  0  0
    7.2179  -20.2894    0.0000 N   0  0  0  0  0  0  0  0  0  0  0  0
    9.8164  -18.7893    0.0000 N   0  0  0  0  0  0  0  0  0  0  0  0
   11.1154  -18.0392    0.0000 C   0  0  0  0  0  0  0  0  0  0  0  0
   12.4146  -18.7893    0.0000 C   0  0  0  0  0  0  0  0  0  0  0  0
   13.7138  -18.0392    0.0000 N   0  0  0  0  0  0  0  0  0  0  0  0
   15.0128  -18.7893    0.0000 C   0  0  0  0  0  0  0  0  0  0  0  0
   16.3121  -18.0392    0.0000 C   0  0  0  0  0  0  0  0  0  0  0  0
   15.0128  -20.2894    0.0000 O   0  0  0  0  0  0  0  0  0  0  0  0
   11.1154  -16.5390    0.0000 O   0  0  0  0  0  0  0  0  0  0  0  0
   12.4139  -20.2883    0.0000 C   0  0  0  0  0  0  0  0  0  0  0  0
    3.3214  -18.0339    0.0000 C   0  0  0  0  0  0  0  0  0  0  0  0
    2.0230  -18.7827    0.0000 C   0  0  0  0  0  0  0  0  0  0  0  0
    2.0221  -20.2845    0.0000 C   0  0  0  0  0  0  0  0  0  0  0  0
    3.3305  -21.0342    0.0000 C   0  0  0  0  0  0  0  0  0  0  0  0
    4.6235  -20.2810    0.0000 C   0  0  0  0  0  0  0  0  0  0  0  0
   11.1145  -21.0378    0.0000 C   0  0  0  0  0  0  0  0  0  0  0  0
    9.8224  -20.2830    0.0000 C   0  0  0  0  0  0  0  0  0  0  0  0
    8.5238  -21.0315    0.0000 C   0  0  0  0  0  0  0  0  0  0  0  0
    8.5223  -22.5331    0.0000 C   0  0  0  0  0  0  0  0  0  0  0  0
    9.8304  -23.2835    0.0000 C   0  0  0  0  0  0  0  0  0  0  0  0
   11.1236  -22.5309    0.0000 C   0  0  0  0  0  0  0  0  0  0  0  0
   17.6002  -15.7961    0.0000 C   0  0  0  0  0  0  0  0  0  0  0  0
   16.3074  -16.5492    0.0000 C   0  0  0  0  0  0  0  0  0  0  0  0
   18.8910  -16.5429    0.0000 C   0  0  0  0  0  0  0  0  0  0  0  0
   20.1829  -15.7910    0.0000 C   0  0  0  0  0  0  0  0  0  0  0  0
   20.1780  -14.2932    0.0000 C   0  0  0  0  0  0  0  0  0  0  0  0
   18.8703  -13.5502    0.0000 C   0  0  0  0  0  0  0  0  0  0  0  0
   17.5837  -14.3064    0.0000 C   0  0  0  0  0  0  0  0  0  0  0  0
 16 17  2  0  0  0  0
  8  9  1  0  0  0  0
 17 18  1  0  0  0  0
  3  5  1  6  0  0  0
 18 19  2  0  0  0  0
 19  1  1  0  0  0  0
  9 10  1  0  0  0  0
 14 20  1  0  0  0  0
  2  3  1  0  0  0  0
 20 21  2  0  0  0  0
 10 11  1  0  0  0  0
 21 22  1  0  0  0  0
  4  6  1  0  0  0  0
 22 23  2  0  0  0  0
 10 12  2  0  0  0  0
 23 24  1  0  0  0  0
  1  2  1  0  0  0  0
 24 25  2  0  0  0  0
 25 20  1  0  0  0  0
  7 13  2  0  0  0  0
  6  7  1  0  0  0  0
 26 27  1  0  0  0  0
 27 11  1  0  0  0  0
  8 14  1  1  0  0  0
 26 28  2  0  0  0  0
  3  4  1  0  0  0  0
 28 29  1  0  0  0  0
  1 15  2  0  0  0  0
 29 30  2  0  0  0  0
  7  8  1  0  0  0  0
 30 31  1  0  0  0  0
 15 16  1  0  0  0  0
 31 32  2  0  0  0  0
 32 26  1  0  0  0  0
M  END
> <Value>
3.438259460155664

> <Error>
0.0034810911001499356

> <Relation>
=

> <SourceURI>
mol:CHEMBL516245

$$$$

Generated by Molecular Materials Informatics

 31 32  0  0  0  0  0  0  0  0999 V2000
    4.1028  -22.6655    0.0000 C   0  0  0  0  0  0  0  0  0  0  0  0
    5.4018  -21.9155    0.0000 C   0  0  0  0  0  0  0  0  0  0  0  0
    6.7008  -22.6655    0.0000 C   0  0  0  0  0  0  0  0  0  0  0  0
    7.9999  -21.9155    0.0000 C   0  0  0  0  0  0  0  0  0  0  0  0
    6.7008  -24.1655    0.0000 N   0  0  0  0  0  0  0  0  0  0  0  0
    9.2990  -22.6655    0.0000 N   0  0  0  0  0  0  0  0  0  0  0  0
   10.5979  -21.9155    0.0000 C   0  0  0  0  0  0  0  0  0  0  0  0
   11.8970  -22.6655    0.0000 C   0  0  0  0  0  0  0  0  0  0  0  0
   13.1961  -21.9155    0.0000 N   0  0  0  0  0  0  0  0  0  0  0  0
   14.4950  -22.6655    0.0000 C   0  0  0  0  0  0  0  0  0  0  0  0
   15.7941  -21.9155    0.0000 N   0  0  0  0  0  0  0  0  0  0  0  0
   14.4950  -24.1655    0.0000 O   0  0  0  0  0  0  0  0  0  0  0  0
   10.5979  -20.4155    0.0000 O   0  0  0  0  0  0  0  0  0  0  0  0
   11.8963  -24.1644    0.0000 C   0  0  0  0  0  0  0  0  0  0  0  0
    2.8047  -21.9102    0.0000 C   0  0  0  0  0  0  0  0  0  0  0  0
    1.5065  -22.6589    0.0000 C   0  0  0  0  0  0  0  0  0  0  0  0
    1.5056  -24.1605    0.0000 C   0  0  0  0  0  0  0  0  0  0  0  0
    2.8138  -24.9102    0.0000 C   0  0  0  0  0  0  0  0  0  0  0  0
    4.1067  -24.1571    0.0000 C   0  0  0  0  0  0  0  0  0  0  0  0
   10.5970  -24.9138    0.0000 S   0  0  0  0  0  0  0  0  0  0  0  0
   17.0932  -22.6655    0.0000 C   0  0  0  0  0  0  0  0  0  0  0  0
   18.3921  -21.9155    0.0000 C   0  0  0  0  0  0  0  0  0  0  0  0
   17.0932  -24.1655    0.0000 C   0  0  0  0  0  0  0  0  0  0  0  0
   19.6972  -22.6596    0.0000 O   0  0  0  0  0  0  0  0  0  0  0  0
   18.3981  -20.4096    0.0000 O   0  0  0  0  0  0  0  0  0  0  0  0
   18.3921  -24.9155    0.0000 C   0  0  0  0  0  0  0  0  0  0  0  0
   18.3856  -26.4174    0.0000 C   0  0  0  0  0  0  0  0  0  0  0  0
   19.6832  -27.1673    0.0000 C   0  0  0  0  0  0  0  0  0  0  0  0
   20.9839  -26.4173    0.0000 C   0  0  0  0  0  0  0  0  0  0  0  0
   20.9792  -24.9095    0.0000 C   0  0  0  0  0  0  0  0  0  0  0  0
   19.6805  -24.1664    0.0000 C   0  0  0  0  0  0  0  0  0  0  0  0
 15 16  1  0  0  0  0
 16 17  2  0  0  0  0
  8  9  1  0  0  0  0
 17 18  1  0  0  0  0
  3  5  1  6  0  0  0
 18 19  2  0  0  0  0
 19  1  1  0  0  0  0
  9 10  1  0  0  0  0
 14 20  1  0  0  0  0
  2  3  1  0  0  0  0
 11 21  1  0  0  0  0
 10 11  1  0  0  0  0
 21 22  1  0  0  0  0
  4  6  1  0  0  0  0
 21 23  1  6  0  0  0
 10 12  2  0  0  0  0
  1  2  1  0  0  0  0
 22 24  1  0  0  0  0
 22 25  2  0  0  0  0
  7 13  2  0  0  0  0
 23 26  1  0  0  0  0
  6  7  1  0  0  0  0
 26 27  2  0  0  0  0
  8 14  1  1  0  0  0
 27 28  1  0  0  0  0
  3  4  1  0  0  0  0
 28 29  2  0  0  0  0
  1 15  2  0  0  0  0
 29 30  1  0  0  0  0
  7  8  1  0  0  0  0
 30 31  2  0  0  0  0
 31 26  1  0  0  0  0
M  END
> <Value>
5.009387011251299

> <Error>
0.0012261738875887218

> <Relation>
=

> <SourceURI>
mol:CHEMBL474993

$$$$

Generated by Molecular Materials Informatics

 30 32  0  0  0  0  0  0  0  0999 V2000
    8.4983   -5.2358    0.0000 C   0  0  0  0  0  0  0  0  0  0  0  0
    8.4983   -6.7444    0.0000 N   0  0  0  0  0  0  0  0  0  0  0  0
    9.7972   -7.4944    0.0000 C   0  0  0  0  0  0  0  0  0  0  0  0
   11.1047   -6.7444    0.0000 C   0  0  0  0  0  0  0  0  0  0  0  0
   11.1047   -5.2358    0.0000 C   0  0  0  0  0  0  0  0  0  0  0  0
    9.7972   -4.4775    0.0000 C   0  0  0  0  0  0  0  0  0  0  0  0
    9.7951   -8.9944    0.0000 O   0  0  0  0  0  0  0  0  0  0  0  0
    7.1972   -4.4891    0.0000 O   0  0  0  0  0  0  0  0  0  0  0  0
   12.4027   -7.4960    0.0000 N   0  0  0  0  0  0  0  0  0  0  0  0
   13.7027   -6.7478    0.0000 C   0  0  0  0  0  0  0  0  0  0  0  0
   15.0007   -7.4997    0.0000 C   0  0  0  0  0  0  0  0  0  0  0  0
   13.7047   -5.2478    0.0000 O   0  0  0  0  0  0  0  0  0  0  0  0
   14.9912   -8.9967    0.0000 C   0  0  0  0  0  0  0  0  0  0  0  0
   16.2880   -9.7482    0.0000 C   0  0  0  0  0  0  0  0  0  0  0  0
   17.5898   -9.0000    0.0000 C   0  0  0  0  0  0  0  0  0  0  0  0
   17.5869   -7.4924    0.0000 C   0  0  0  0  0  0  0  0  0  0  0  0
   16.2892   -6.7473    0.0000 C   0  0  0  0  0  0  0  0  0  0  0  0
   18.8843   -6.7395    0.0000 O   0  0  0  0  0  0  0  0  0  0  0  0
   18.8810   -5.2395    0.0000 C   0  0  0  0  0  0  0  0  0  0  0  0
   18.8887   -9.7500    0.0000 O   0  0  0  0  0  0  0  0  0  0  0  0
   18.8885  -11.2500    0.0000 C   0  0  0  0  0  0  0  0  0  0  0  0
   16.2850  -11.2482    0.0000 O   0  0  0  0  0  0  0  0  0  0  0  0
   14.9845  -11.9958    0.0000 C   0  0  0  0  0  0  0  0  0  0  0  0
    7.1991   -7.4944    0.0000 C   0  0  0  0  0  0  0  0  0  0  0  0
    5.9016   -6.7380    0.0000 C   0  0  0  0  0  0  0  0  0  0  0  0
    4.6034   -7.4869    0.0000 C   0  0  0  0  0  0  0  0  0  0  0  0
    4.6025   -8.9886    0.0000 C   0  0  0  0  0  0  0  0  0  0  0  0
    5.9107   -9.7380    0.0000 C   0  0  0  0  0  0  0  0  0  0  0  0
    7.2036   -8.9851    0.0000 C   0  0  0  0  0  0  0  0  0  0  0  0
    5.9047   -5.2380    0.0000 N   0  0  0  0  0  0  0  0  0  0  0  0
 14 15  2  0  0  0  0
  1  2  1  0  0  0  0
 15 16  1  0  0  0  0
  1  8  2  0  0  0  0
 16 17  2  0  0  0  0
 17 11  1  0  0  0  0
  1  6  1  0  0  0  0
 16 18  1  0  0  0  0
  4  9  1  0  0  0  0
 18 19  1  0  0  0  0
  2  3  1  0  0  0  0
 15 20  1  0  0  0  0
 10  9  1  0  0  0  0
 20 21  1  0  0  0  0
  3  4  1  0  0  0  0
 14 22  1  0  0  0  0
 10 11  1  0  0  0  0
 22 23  1  0  0  0  0
  4  5  1  0  0  0  0
  2 24  1  0  0  0  0
 10 12  2  0  0  0  0
 24 25  2  0  0  0  0
  5  6  1  0  0  0  0
 25 26  1  0  0  0  0
 11 13  2  0  0  0  0
 26 27  2  0  0  0  0
 27 28  1  0  0  0  0
 13 14  1  0  0  0  0
 28 29  2  0  0  0  0
 29 24  1  0  0  0  0
  3  7  2  0  0  0  0
 25 30  1  0  0  0  0
M  END
> <Value>
3.9829666607012197

> <Relation>
=

> <SourceURI>
mol:CHEMBL476466

$$$$

Generated by Molecular Materials Informatics

 39 41  0  0  0  0  0  0  0  0999 V2000
   -2.8973    1.3581    0.0000 C   0  0  0  0  0  0  0  0  0  0  0  0
   -4.2123    2.0898    0.0000 C   0  0  0  0  0  0  0  0  0  0  0  0
   -5.4976    1.3201    0.0000 C   0  0  0  0  0  0  0  0  0  0  0  0
   -5.4743   -0.1883    0.0000 C   0  0  0  0  0  0  0  0  0  0  0  0
   -4.1499   -0.9158    0.0000 C   0  0  0  0  0  0  0  0  0  0  0  0
   -2.8666   -0.1343    0.0000 C   0  0  0  0  0  0  0  0  0  0  0  0
   -6.7592   -0.9618    0.0000 S   0  0  0  0  0  0  0  0  0  0  0  0
   -8.0360   -1.7229    0.0000 N   0  0  0  0  0  0  0  0  0  0  0  0
   -5.9885   -2.2487    0.0000 O   0  0  0  0  0  0  0  0  0  0  0  0
   -7.5420    0.3179    0.0000 O   0  0  0  0  0  0  0  0  0  0  0  0
   -8.0151   -3.2227    0.0000 C   0  0  0  0  0  0  0  0  0  0  0  0
   -9.2171   -4.1171    0.0000 S   0  0  0  0  0  0  0  0  0  0  0  0
   -8.7337   -5.5371    0.0000 C   0  0  0  0  0  0  0  0  0  0  0  0
   -7.2340   -5.5161    0.0000 C   0  0  0  0  0  0  0  0  0  0  0  0
   -6.7905   -4.0831    0.0000 N   0  0  0  0  0  0  0  0  0  0  0  0
   -1.6122    2.1316    0.0000 N   0  0  0  0  0  0  0  0  0  0  0  0
   -0.2996    1.4054    0.0000 C   0  0  0  0  0  0  0  0  0  0  0  0
    0.9857    2.1790    0.0000 C   0  0  0  0  0  0  0  0  0  0  0  0
   -0.2724   -0.0945    0.0000 O   0  0  0  0  0  0  0  0  0  0  0  0
    2.2981    1.4527    0.0000 N   0  0  0  0  0  0  0  0  0  0  0  0
    0.9582    3.6785    0.0000 C   0  0  0  0  0  0  0  0  0  0  0  0
   -0.3542    4.4051    0.0000 C   0  0  0  0  0  0  0  0  0  0  0  0
   -0.3815    5.9046    0.0000 C   0  0  0  0  0  0  0  0  0  0  0  0
   -1.6940    6.6310    0.0000 O   0  0  0  0  0  0  0  0  0  0  0  0
    0.9039    6.6782    0.0000 O   0  0  0  0  0  0  0  0  0  0  0  0
    3.5832    2.2261    0.0000 C   0  0  0  0  0  0  0  0  0  0  0  0
    4.8956    1.4999    0.0000 C   0  0  0  0  0  0  0  0  0  0  0  0
    3.5561    3.7260    0.0000 O   0  0  0  0  0  0  0  0  0  0  0  0
    4.9187   -0.0021    0.0000 C   0  0  0  0  0  0  0  0  0  0  0  0
    6.2296   -0.7281    0.0000 C   0  0  0  0  0  0  0  0  0  0  0  0
    7.5166    0.0455    0.0000 C   0  0  0  0  0  0  0  0  0  0  0  0
    7.4842    1.5530    0.0000 C   0  0  0  0  0  0  0  0  0  0  0  0
    6.1725    2.2723    0.0000 C   0  0  0  0  0  0  0  0  0  0  0  0
    8.7670    2.3310    0.0000 O   0  0  0  0  0  0  0  0  0  0  0  0
    8.7342    3.8305    0.0000 C   0  0  0  0  0  0  0  0  0  0  0  0
    8.8300   -0.6790    0.0000 O   0  0  0  0  0  0  0  0  0  0  0  0
    8.8593   -2.1787    0.0000 C   0  0  0  0  0  0  0  0  0  0  0  0
    6.2560   -2.2278    0.0000 O   0  0  0  0  0  0  0  0  0  0  0  0
    4.9707   -3.0007    0.0000 C   0  0  0  0  0  0  0  0  0  0  0  0
 17 19  2  0  0  0  0
  4  5  1  0  0  0  0
 18 20  1  1  0  0  0
  7 10  2  0  0  0  0
 18 21  1  0  0  0  0
  2  3  1  0  0  0  0
 21 22  1  0  0  0  0
  8 11  1  0  0  0  0
 22 23  1  0  0  0  0
 11 12  1  0  0  0  0
 23 24  2  0  0  0  0
  5  6  2  0  0  0  0
 23 25  1  0  0  0  0
  6  1  1  0  0  0  0
 20 26  1  0  0  0  0
  1  2  2  0  0  0  0
 26 27  1  0  0  0  0
  4  7  1  0  0  0  0
 26 28  2  0  0  0  0
 12 13  1  0  0  0  0
 27 29  2  0  0  0  0
 13 14  2  0  0  0  0
 29 30  1  0  0  0  0
 14 15  1  0  0  0  0
 30 31  2  0  0  0  0
 15 11  2  0  0  0  0
 31 32  1  0  0  0  0
  3  4  2  0  0  0  0
 32 33  2  0  0  0  0
 33 27  1  0  0  0  0
  1 16  1  0  0  0  0
 32 34  1  0  0  0  0
  7  8  1  0  0  0  0
 34 35  1  0  0  0  0
 16 17  1  0  0  0  0
 31 36  1  0  0  0  0
 36 37  1  0  0  0  0
 17 18  1  0  0  0  0
 30 38  1  0  0  0  0
  7  9  2  0  0  0  0
 38 39  1  0  0  0  0
M  END
> <Value>
4.396855627379818

> <Relation>
=

> <SourceURI>
mol:CHEMBL486063

$$$$

Generated by Molecular Materials Informatics

 34 35  0  0  0  0  0  0  0  0999 V2000
    9.6104   -0.0422    0.0000 C   0  0  0  0  0  0  0  0  0  0  0  0
    8.2954    0.6896    0.0000 C   0  0  0  0  0  0  0  0  0  0  0  0
    7.0103   -0.0802    0.0000 C   0  0  0  0  0  0  0  0  0  0  0  0
    7.0334   -1.5884    0.0000 C   0  0  0  0  0  0  0  0  0  0  0  0
    8.3578   -2.3161    0.0000 C   0  0  0  0  0  0  0  0  0  0  0  0
    9.6411   -1.5346    0.0000 C   0  0  0  0  0  0  0  0  0  0  0  0
    5.7485   -2.3619    0.0000 S   0  0  0  0  0  0  0  0  0  0  0  0
    4.4719   -3.1230    0.0000 N   0  0  0  0  0  0  0  0  0  0  0  0
    6.5192   -3.6486    0.0000 O   0  0  0  0  0  0  0  0  0  0  0  0
    4.9659   -1.0824    0.0000 O   0  0  0  0  0  0  0  0  0  0  0  0
   10.8955    0.7315    0.0000 N   0  0  0  0  0  0  0  0  0  0  0  0
   12.2081    0.0051    0.0000 C   0  0  0  0  0  0  0  0  0  0  0  0
   13.4932    0.7787    0.0000 C   0  0  0  0  0  0  0  0  0  0  0  0
   12.2351   -1.4946    0.0000 O   0  0  0  0  0  0  0  0  0  0  0  0
   14.8056    0.0525    0.0000 N   0  0  0  0  0  0  0  0  0  0  0  0
   13.4657    2.2784    0.0000 C   0  0  0  0  0  0  0  0  0  0  0  0
   12.1533    3.0046    0.0000 C   0  0  0  0  0  0  0  0  0  0  0  0
   12.1262    4.5044    0.0000 C   0  0  0  0  0  0  0  0  0  0  0  0
   10.8137    5.2306    0.0000 O   0  0  0  0  0  0  0  0  0  0  0  0
   13.4113    5.2777    0.0000 O   0  0  0  0  0  0  0  0  0  0  0  0
   16.0907    0.8258    0.0000 C   0  0  0  0  0  0  0  0  0  0  0  0
   17.4030    0.0996    0.0000 C   0  0  0  0  0  0  0  0  0  0  0  0
   16.0636    2.3257    0.0000 O   0  0  0  0  0  0  0  0  0  0  0  0
   17.4261   -1.4022    0.0000 C   0  0  0  0  0  0  0  0  0  0  0  0
   18.7371   -2.1282    0.0000 C   0  0  0  0  0  0  0  0  0  0  0  0
   20.0238   -1.3548    0.0000 C   0  0  0  0  0  0  0  0  0  0  0  0
   19.9916    0.1527    0.0000 C   0  0  0  0  0  0  0  0  0  0  0  0
   18.6798    0.8720    0.0000 C   0  0  0  0  0  0  0  0  0  0  0  0
   21.2742    0.9305    0.0000 O   0  0  0  0  0  0  0  0  0  0  0  0
   21.2417    2.4304    0.0000 C   0  0  0  0  0  0  0  0  0  0  0  0
   21.3375   -2.0791    0.0000 O   0  0  0  0  0  0  0  0  0  0  0  0
   21.3666   -3.5790    0.0000 C   0  0  0  0  0  0  0  0  0  0  0  0
   18.7634   -3.6281    0.0000 O   0  0  0  0  0  0  0  0  0  0  0  0
   17.4781   -4.4008    0.0000 C   0  0  0  0  0  0  0  0  0  0  0  0
 16 17  1  0  0  0  0
 17 18  1  0  0  0  0
  7  9  2  0  0  0  0
 18 19  2  0  0  0  0
  4  5  1  0  0  0  0
 18 20  1  0  0  0  0
  7 10  2  0  0  0  0
 15 21  1  0  0  0  0
  2  3  1  0  0  0  0
 21 22  1  0  0  0  0
  1 11  1  0  0  0  0
 21 23  2  0  0  0  0
  5  6  2  0  0  0  0
 22 24  2  0  0  0  0
 11 12  1  0  0  0  0
 24 25  1  0  0  0  0
  6  1  1  0  0  0  0
 25 26  2  0  0  0  0
 12 13  1  0  0  0  0
 26 27  1  0  0  0  0
  1  2  2  0  0  0  0
 27 28  2  0  0  0  0
 28 22  1  0  0  0  0
 12 14  2  0  0  0  0
 27 29  1  0  0  0  0
  4  7  1  0  0  0  0
 29 30  1  0  0  0  0
 13 15  1  1  0  0  0
 26 31  1  0  0  0  0
  3  4  2  0  0  0  0
 31 32  1  0  0  0  0
 13 16  1  0  0  0  0
 25 33  1  0  0  0  0
  7  8  1  0  0  0  0
 33 34  1  0  0  0  0
M  END
> <Value>
3.9888526392242025

> <Relation>
=

> <SourceURI>
mol:CHEMBL482633

$$$$

Generated by Molecular Materials Informatics

 29 30  0  0  0  0  0  0  0  0999 V2000
   -4.0865   -7.4542    0.0000 N   0  0  0  0  0  0  0  0  0  0  0  0
   -2.7742   -8.1803    0.0000 C   0  0  0  0  0  0  0  0  0  0  0  0
   -1.4891   -7.4071    0.0000 C   0  0  0  0  0  0  0  0  0  0  0  0
   -2.7471   -9.6801    0.0000 O   0  0  0  0  0  0  0  0  0  0  0  0
   -0.1767   -8.1332    0.0000 N   0  0  0  0  0  0  0  0  0  0  0  0
   -1.5162   -5.9073    0.0000 C   0  0  0  0  0  0  0  0  0  0  0  0
   -2.8287   -5.1811    0.0000 C   0  0  0  0  0  0  0  0  0  0  0  0
   -2.8560   -3.6813    0.0000 C   0  0  0  0  0  0  0  0  0  0  0  0
   -4.1683   -2.9551    0.0000 O   0  0  0  0  0  0  0  0  0  0  0  0
   -1.5709   -2.9078    0.0000 O   0  0  0  0  0  0  0  0  0  0  0  0
    1.1085   -7.3598    0.0000 C   0  0  0  0  0  0  0  0  0  0  0  0
    2.4211   -8.0860    0.0000 C   0  0  0  0  0  0  0  0  0  0  0  0
    1.0813   -5.8600    0.0000 O   0  0  0  0  0  0  0  0  0  0  0  0
    2.4438   -9.5878    0.0000 C   0  0  0  0  0  0  0  0  0  0  0  0
    3.7547  -10.3139    0.0000 C   0  0  0  0  0  0  0  0  0  0  0  0
    5.0418   -9.5401    0.0000 C   0  0  0  0  0  0  0  0  0  0  0  0
    5.0096   -8.0327    0.0000 C   0  0  0  0  0  0  0  0  0  0  0  0
    3.6976   -7.3136    0.0000 C   0  0  0  0  0  0  0  0  0  0  0  0
    6.2919   -7.2549    0.0000 O   0  0  0  0  0  0  0  0  0  0  0  0
    6.2592   -5.7553    0.0000 C   0  0  0  0  0  0  0  0  0  0  0  0
    6.3550  -10.2647    0.0000 O   0  0  0  0  0  0  0  0  0  0  0  0
    6.3843  -11.7645    0.0000 C   0  0  0  0  0  0  0  0  0  0  0  0
    3.7814  -11.8134    0.0000 O   0  0  0  0  0  0  0  0  0  0  0  0
    2.4958  -12.5865    0.0000 C   0  0  0  0  0  0  0  0  0  0  0  0
   -5.3716   -8.2276    0.0000 C   0  0  0  0  0  0  0  0  0  0  0  0
   -6.7577   -7.6496    0.0000 S   0  0  0  0  0  0  0  0  0  0  0  0
   -7.7412   -8.7823    0.0000 C   0  0  0  0  0  0  0  0  0  0  0  0
   -6.9676  -10.0674    0.0000 C   0  0  0  0  0  0  0  0  0  0  0  0
   -5.5065   -9.7287    0.0000 N   0  0  0  0  0  0  0  0  0  0  0  0
 14 15  1  0  0  0  0
  7  8  1  0  0  0  0
 15 16  2  0  0  0  0
 16 17  1  0  0  0  0
  8  9  2  0  0  0  0
 17 18  2  0  0  0  0
 18 12  1  0  0  0  0
  3  5  1  1  0  0  0
 17 19  1  0  0  0  0
  8 10  1  0  0  0  0
 19 20  1  0  0  0  0
  2  3  1  0  0  0  0
 16 21  1  0  0  0  0
  5 11  1  0  0  0  0
 21 22  1  0  0  0  0
  3  6  1  0  0  0  0
 15 23  1  0  0  0  0
 11 12  1  0  0  0  0
 23 24  1  0  0  0  0
  1  2  1  0  0  0  0
  1 25  1  0  0  0  0
 25 26  1  0  0  0  0
 11 13  2  0  0  0  0
  6  7  1  0  0  0  0
 12 14  2  0  0  0  0
  2  4  2  0  0  0  0
 26 27  1  0  0  0  0
 27 28  2  0  0  0  0
 28 29  1  0  0  0  0
 29 25  2  0  0  0  0
M  END
> <Value>
3.9681877286696294

> <Relation>
=

> <SourceURI>
mol:CHEMBL491854

$$$$

Generated by Molecular Materials Informatics

 32 33  0  0  0  0  0  0  0  0999 V2000
    9.1840   -8.1055    0.0000 N   0  0  0  0  0  0  0  0  0  0  0  0
   10.4963   -8.8317    0.0000 C   0  0  0  0  0  0  0  0  0  0  0  0
   11.7815   -8.0581    0.0000 C   0  0  0  0  0  0  0  0  0  0  0  0
   10.5238  -10.3315    0.0000 O   0  0  0  0  0  0  0  0  0  0  0  0
   13.0940   -8.7846    0.0000 N   0  0  0  0  0  0  0  0  0  0  0  0
   11.7543   -6.5585    0.0000 C   0  0  0  0  0  0  0  0  0  0  0  0
   10.4419   -5.8322    0.0000 C   0  0  0  0  0  0  0  0  0  0  0  0
   10.4145   -4.3326    0.0000 C   0  0  0  0  0  0  0  0  0  0  0  0
    9.1022   -3.6063    0.0000 O   0  0  0  0  0  0  0  0  0  0  0  0
   11.6997   -3.5590    0.0000 O   0  0  0  0  0  0  0  0  0  0  0  0
   14.3792   -8.0110    0.0000 C   0  0  0  0  0  0  0  0  0  0  0  0
   15.6916   -8.7372    0.0000 C   0  0  0  0  0  0  0  0  0  0  0  0
   14.3518   -6.5112    0.0000 O   0  0  0  0  0  0  0  0  0  0  0  0
   15.7146  -10.2391    0.0000 C   0  0  0  0  0  0  0  0  0  0  0  0
   17.0253  -10.9651    0.0000 C   0  0  0  0  0  0  0  0  0  0  0  0
   18.3124  -10.1915    0.0000 C   0  0  0  0  0  0  0  0  0  0  0  0
   18.2802   -8.6841    0.0000 C   0  0  0  0  0  0  0  0  0  0  0  0
   16.9684   -7.9648    0.0000 C   0  0  0  0  0  0  0  0  0  0  0  0
   19.5625   -7.9061    0.0000 O   0  0  0  0  0  0  0  0  0  0  0  0
   19.5300   -6.4065    0.0000 C   0  0  0  0  0  0  0  0  0  0  0  0
   19.6258  -10.9162    0.0000 O   0  0  0  0  0  0  0  0  0  0  0  0
   19.6550  -12.4157    0.0000 C   0  0  0  0  0  0  0  0  0  0  0  0
   17.0521  -12.4648    0.0000 O   0  0  0  0  0  0  0  0  0  0  0  0
   15.7665  -13.2377    0.0000 C   0  0  0  0  0  0  0  0  0  0  0  0
    7.8988   -8.8790    0.0000 N   0  0  0  0  0  0  0  0  0  0  0  0
    6.5863   -8.1528    0.0000 C   0  0  0  0  0  0  0  0  0  0  0  0
    5.3012   -8.9261    0.0000 C   0  0  0  0  0  0  0  0  0  0  0  0
    6.5592   -6.6531    0.0000 O   0  0  0  0  0  0  0  0  0  0  0  0
    3.9182   -8.3463    0.0000 S   0  0  0  0  0  0  0  0  0  0  0  0
    2.9350   -9.4791    0.0000 C   0  0  0  0  0  0  0  0  0  0  0  0
    3.7084  -10.7645    0.0000 C   0  0  0  0  0  0  0  0  0  0  0  0
    5.1696  -10.4256    0.0000 N   0  0  0  0  0  0  0  0  0  0  0  0
 16 17  1  0  0  0  0
  8  9  2  0  0  0  0
 17 18  2  0  0  0  0
 18 12  1  0  0  0  0
  3  5  1  1  0  0  0
 17 19  1  0  0  0  0
  8 10  1  0  0  0  0
 19 20  1  0  0  0  0
  2  3  1  0  0  0  0
 16 21  1  0  0  0  0
  5 11  1  0  0  0  0
 21 22  1  0  0  0  0
  3  6  1  0  0  0  0
 15 23  1  0  0  0  0
 11 12  1  0  0  0  0
 23 24  1  0  0  0  0
  1  2  1  0  0  0  0
  1 25  1  0  0  0  0
 11 13  2  0  0  0  0
 25 26  1  0  0  0  0
  6  7  1  0  0  0  0
 26 27  1  0  0  0  0
 12 14  2  0  0  0  0
 26 28  2  0  0  0  0
 27 29  1  0  0  0  0
  2  4  2  0  0  0  0
 14 15  1  0  0  0  0
  7  8  1  0  0  0  0
 15 16  2  0  0  0  0
 29 30  1  0  0  0  0
 30 31  2  0  0  0  0
 31 32  1  0  0  0  0
 32 27  2  0  0  0  0
M  END
> <Value>
4.05700040663396

> <Relation>
=

> <SourceURI>
mol:CHEMBL490844

$$$$

Generated by Molecular Materials Informatics

 33 34  0  0  0  0  0  0  0  0999 V2000
   -2.1003  -15.5261    0.0000 N   0  0  0  0  0  0  0  0  0  0  0  0
   -0.7878  -16.2523    0.0000 C   0  0  0  0  0  0  0  0  0  0  0  0
    0.4974  -15.4788    0.0000 C   0  0  0  0  0  0  0  0  0  0  0  0
   -0.7605  -17.7520    0.0000 O   0  0  0  0  0  0  0  0  0  0  0  0
    1.8099  -16.2052    0.0000 N   0  0  0  0  0  0  0  0  0  0  0  0
    0.4700  -13.9791    0.0000 C   0  0  0  0  0  0  0  0  0  0  0  0
   -0.8424  -13.2529    0.0000 C   0  0  0  0  0  0  0  0  0  0  0  0
   -0.8696  -11.7531    0.0000 C   0  0  0  0  0  0  0  0  0  0  0  0
   -2.1821  -11.0270    0.0000 O   0  0  0  0  0  0  0  0  0  0  0  0
    0.4156  -10.9795    0.0000 O   0  0  0  0  0  0  0  0  0  0  0  0
    3.0950  -15.4317    0.0000 C   0  0  0  0  0  0  0  0  0  0  0  0
    4.4075  -16.1579    0.0000 C   0  0  0  0  0  0  0  0  0  0  0  0
    3.0679  -13.9320    0.0000 O   0  0  0  0  0  0  0  0  0  0  0  0
    4.4304  -17.6597    0.0000 C   0  0  0  0  0  0  0  0  0  0  0  0
    5.7414  -18.3858    0.0000 C   0  0  0  0  0  0  0  0  0  0  0  0
    7.0281  -17.6120    0.0000 C   0  0  0  0  0  0  0  0  0  0  0  0
    6.9959  -16.1046    0.0000 C   0  0  0  0  0  0  0  0  0  0  0  0
    5.6842  -15.3856    0.0000 C   0  0  0  0  0  0  0  0  0  0  0  0
    8.2786  -15.3267    0.0000 O   0  0  0  0  0  0  0  0  0  0  0  0
    8.2461  -13.8271    0.0000 C   0  0  0  0  0  0  0  0  0  0  0  0
    8.3417  -18.3367    0.0000 O   0  0  0  0  0  0  0  0  0  0  0  0
    8.3710  -19.8365    0.0000 C   0  0  0  0  0  0  0  0  0  0  0  0
    5.7678  -19.8854    0.0000 O   0  0  0  0  0  0  0  0  0  0  0  0
    4.4824  -20.6585    0.0000 C   0  0  0  0  0  0  0  0  0  0  0  0
   -3.3854  -16.2995    0.0000 N   0  0  0  0  0  0  0  0  0  0  0  0
   -4.6979  -15.5734    0.0000 C   0  0  0  0  0  0  0  0  0  0  0  0
   -5.9831  -16.3470    0.0000 C   0  0  0  0  0  0  0  0  0  0  0  0
   -4.7252  -14.0736    0.0000 O   0  0  0  0  0  0  0  0  0  0  0  0
   -7.2902  -15.6176    0.0000 C   0  0  0  0  0  0  0  0  0  0  0  0
   -8.5745  -16.3897    0.0000 C   0  0  0  0  0  0  0  0  0  0  0  0
   -8.5481  -17.8911    0.0000 C   0  0  0  0  0  0  0  0  0  0  0  0
   -7.2265  -18.6167    0.0000 N   0  0  0  0  0  0  0  0  0  0  0  0
   -5.9475  -17.8402    0.0000 C   0  0  0  0  0  0  0  0  0  0  0  0
 16 17  1  0  0  0  0
  8  9  2  0  0  0  0
 17 18  2  0  0  0  0
 18 12  1  0  0  0  0
  3  5  1  1  0  0  0
 17 19  1  0  0  0  0
  8 10  1  0  0  0  0
 19 20  1  0  0  0  0
  2  3  1  0  0  0  0
 16 21  1  0  0  0  0
  5 11  1  0  0  0  0
 21 22  1  0  0  0  0
  3  6  1  0  0  0  0
 15 23  1  0  0  0  0
 11 12  1  0  0  0  0
 23 24  1  0  0  0  0
  1  2  1  0  0  0  0
  1 25  1  0  0  0  0
 11 13  2  0  0  0  0
 25 26  1  0  0  0  0
  6  7  1  0  0  0  0
 26 27  1  0  0  0  0
 12 14  2  0  0  0  0
 26 28  2  0  0  0  0
  2  4  2  0  0  0  0
 27 29  2  0  0  0  0
 14 15  1  0  0  0  0
 29 30  1  0  0  0  0
  7  8  1  0  0  0  0
 30 31  2  0  0  0  0
 15 16  2  0  0  0  0
 31 32  1  0  0  0  0
 32 33  2  0  0  0  0
 33 27  1  0  0  0  0
M  END
> <Value>
4.140261433802853

> <Relation>
=

> <SourceURI>
mol:CHEMBL521950

$$$$

Generated by Molecular Materials Informatics

 31 32  0  0  0  0  0  0  0  0999 V2000
    9.9923  -15.7820    0.0000 N   0  0  0  0  0  0  0  0  0  0  0  0
   11.3048  -16.5084    0.0000 C   0  0  0  0  0  0  0  0  0  0  0  0
   12.5901  -15.7347    0.0000 C   0  0  0  0  0  0  0  0  0  0  0  0
   11.3322  -18.0079    0.0000 O   0  0  0  0  0  0  0  0  0  0  0  0
   13.9027  -16.4609    0.0000 N   0  0  0  0  0  0  0  0  0  0  0  0
   12.5628  -14.2348    0.0000 C   0  0  0  0  0  0  0  0  0  0  0  0
   11.2504  -13.5086    0.0000 C   0  0  0  0  0  0  0  0  0  0  0  0
   11.2229  -12.0089    0.0000 C   0  0  0  0  0  0  0  0  0  0  0  0
    9.9105  -11.2826    0.0000 O   0  0  0  0  0  0  0  0  0  0  0  0
   12.5083  -11.2354    0.0000 O   0  0  0  0  0  0  0  0  0  0  0  0
   15.1879  -15.6874    0.0000 C   0  0  0  0  0  0  0  0  0  0  0  0
   16.5003  -16.4136    0.0000 C   0  0  0  0  0  0  0  0  0  0  0  0
   15.1606  -14.1877    0.0000 O   0  0  0  0  0  0  0  0  0  0  0  0
   16.5234  -17.9155    0.0000 C   0  0  0  0  0  0  0  0  0  0  0  0
   17.8342  -18.6418    0.0000 C   0  0  0  0  0  0  0  0  0  0  0  0
   19.1212  -17.8681    0.0000 C   0  0  0  0  0  0  0  0  0  0  0  0
   19.0890  -16.3607    0.0000 C   0  0  0  0  0  0  0  0  0  0  0  0
   17.7773  -15.6412    0.0000 C   0  0  0  0  0  0  0  0  0  0  0  0
   20.3714  -15.5827    0.0000 O   0  0  0  0  0  0  0  0  0  0  0  0
   20.3389  -14.0828    0.0000 C   0  0  0  0  0  0  0  0  0  0  0  0
   20.4347  -18.5927    0.0000 O   0  0  0  0  0  0  0  0  0  0  0  0
   20.4642  -20.0924    0.0000 C   0  0  0  0  0  0  0  0  0  0  0  0
   17.8608  -20.1417    0.0000 O   0  0  0  0  0  0  0  0  0  0  0  0
   16.5752  -20.9144    0.0000 C   0  0  0  0  0  0  0  0  0  0  0  0
    8.7072  -16.5555    0.0000 C   0  0  0  0  0  0  0  0  0  0  0  0
    7.3946  -15.8254    0.0000 C   0  0  0  0  0  0  0  0  0  0  0  0
    6.1103  -16.5977    0.0000 C   0  0  0  0  0  0  0  0  0  0  0  0
    6.1367  -18.0992    0.0000 C   0  0  0  0  0  0  0  0  0  0  0  0
    7.4584  -18.8250    0.0000 C   0  0  0  0  0  0  0  0  0  0  0  0
    8.7372  -18.0483    0.0000 C   0  0  0  0  0  0  0  0  0  0  0  0
    4.8524  -18.8743    0.0000 F   0  0  0  0  0  0  0  0  0  0  0  0
 15 16  2  0  0  0  0
 16 17  1  0  0  0  0
  8  9  2  0  0  0  0
 17 18  2  0  0  0  0
 18 12  1  0  0  0  0
  3  5  1  1  0  0  0
 17 19  1  0  0  0  0
  8 10  1  0  0  0  0
 19 20  1  0  0  0  0
  2  3  1  0  0  0  0
 16 21  1  0  0  0  0
  5 11  1  0  0  0  0
 21 22  1  0  0  0  0
  3  6  1  0  0  0  0
 15 23  1  0  0  0  0
 11 12  1  0  0  0  0
 23 24  1  0  0  0  0
  1  2  1  0  0  0  0
  1 25  1  0  0  0  0
 11 13  2  0  0  0  0
 25 26  2  0  0  0  0
  6  7  1  0  0  0  0
 26 27  1  0  0  0  0
 12 14  2  0  0  0  0
 27 28  2  0  0  0  0
  2  4  2  0  0  0  0
 28 29  1  0  0  0  0
 14 15  1  0  0  0  0
 29 30  2  0  0  0  0
 30 25  1  0  0  0  0
  7  8  1  0  0  0  0
 28 31  1  0  0  0  0
M  END
> <Value>
4.614393726401688

> <Relation>
=

> <SourceURI>
mol:CHEMBL491050

$$$$

Generated by Molecular Materials Informatics

 31 32  0  0  0  0  0  0  0  0999 V2000
   -3.3172  -23.1341    0.0000 N   0  0  0  0  0  0  0  0  0  0  0  0
   -2.0048  -23.8604    0.0000 C   0  0  0  0  0  0  0  0  0  0  0  0
   -0.7196  -23.0868    0.0000 C   0  0  0  0  0  0  0  0  0  0  0  0
   -1.9774  -25.3601    0.0000 O   0  0  0  0  0  0  0  0  0  0  0  0
    0.5929  -23.8132    0.0000 N   0  0  0  0  0  0  0  0  0  0  0  0
   -0.7469  -21.5872    0.0000 C   0  0  0  0  0  0  0  0  0  0  0  0
   -2.0592  -20.8609    0.0000 C   0  0  0  0  0  0  0  0  0  0  0  0
   -2.0867  -19.3612    0.0000 C   0  0  0  0  0  0  0  0  0  0  0  0
   -3.3990  -18.6349    0.0000 O   0  0  0  0  0  0  0  0  0  0  0  0
   -0.8014  -18.5876    0.0000 O   0  0  0  0  0  0  0  0  0  0  0  0
    1.8782  -23.0396    0.0000 C   0  0  0  0  0  0  0  0  0  0  0  0
    3.1905  -23.7657    0.0000 C   0  0  0  0  0  0  0  0  0  0  0  0
    1.8507  -21.5398    0.0000 O   0  0  0  0  0  0  0  0  0  0  0  0
    3.2135  -25.2677    0.0000 C   0  0  0  0  0  0  0  0  0  0  0  0
    4.5243  -25.9937    0.0000 C   0  0  0  0  0  0  0  0  0  0  0  0
    5.8112  -25.2201    0.0000 C   0  0  0  0  0  0  0  0  0  0  0  0
    5.7791  -23.7128    0.0000 C   0  0  0  0  0  0  0  0  0  0  0  0
    4.4673  -22.9934    0.0000 C   0  0  0  0  0  0  0  0  0  0  0  0
    7.0614  -22.9348    0.0000 O   0  0  0  0  0  0  0  0  0  0  0  0
    7.0289  -21.4352    0.0000 C   0  0  0  0  0  0  0  0  0  0  0  0
    7.1247  -25.9448    0.0000 O   0  0  0  0  0  0  0  0  0  0  0  0
    7.1541  -27.4444    0.0000 C   0  0  0  0  0  0  0  0  0  0  0  0
    4.5509  -27.4935    0.0000 O   0  0  0  0  0  0  0  0  0  0  0  0
    3.2653  -28.2664    0.0000 C   0  0  0  0  0  0  0  0  0  0  0  0
   -4.6024  -23.9075    0.0000 C   0  0  0  0  0  0  0  0  0  0  0  0
   -5.9150  -23.1775    0.0000 C   0  0  0  0  0  0  0  0  0  0  0  0
   -7.1991  -23.9497    0.0000 C   0  0  0  0  0  0  0  0  0  0  0  0
   -7.1728  -25.4512    0.0000 C   0  0  0  0  0  0  0  0  0  0  0  0
   -5.8511  -26.1770    0.0000 C   0  0  0  0  0  0  0  0  0  0  0  0
   -4.5724  -25.4006    0.0000 C   0  0  0  0  0  0  0  0  0  0  0  0
   -8.4569  -26.2264    0.0000 Cl  0  0  0  0  0  0  0  0  0  0  0  0
 15 16  2  0  0  0  0
 16 17  1  0  0  0  0
  8  9  2  0  0  0  0
 17 18  2  0  0  0  0
 18 12  1  0  0  0  0
  3  5  1  1  0  0  0
 17 19  1  0  0  0  0
  8 10  1  0  0  0  0
 19 20  1  0  0  0  0
  2  3  1  0  0  0  0
 16 21  1  0  0  0  0
  5 11  1  0  0  0  0
 21 22  1  0  0  0  0
  3  6  1  0  0  0  0
 15 23  1  0  0  0  0
 11 12  1  0  0  0  0
 23 24  1  0  0  0  0
  1  2  1  0  0  0  0
  1 25  1  0  0  0  0
 11 13  2  0  0  0  0
 25 26  2  0  0  0  0
  6  7  1  0  0  0  0
 26 27  1  0  0  0  0
 12 14  2  0  0  0  0
 27 28  2  0  0  0  0
  2  4  2  0  0  0  0
 28 29  1  0  0  0  0
 14 15  1  0  0  0  0
 29 30  2  0  0  0  0
 30 25  1  0  0  0  0
  7  8  1  0  0  0  0
 28 31  1  0  0  0  0
M  END
> <Value>
4.3979400086720375

> <Relation>
=

> <SourceURI>
mol:CHEMBL489826

$$$$

Generated by Molecular Materials Informatics

 31 32  0  0  0  0  0  0  0  0999 V2000
    8.5809  -22.7074    0.0000 N   0  0  0  0  0  0  0  0  0  0  0  0
    9.8933  -23.4336    0.0000 C   0  0  0  0  0  0  0  0  0  0  0  0
   11.1786  -22.6599    0.0000 C   0  0  0  0  0  0  0  0  0  0  0  0
    9.9205  -24.9334    0.0000 O   0  0  0  0  0  0  0  0  0  0  0  0
   12.4909  -23.3863    0.0000 N   0  0  0  0  0  0  0  0  0  0  0  0
   11.1513  -21.1604    0.0000 C   0  0  0  0  0  0  0  0  0  0  0  0
    9.8387  -20.4340    0.0000 C   0  0  0  0  0  0  0  0  0  0  0  0
    9.8114  -18.9344    0.0000 C   0  0  0  0  0  0  0  0  0  0  0  0
    8.4990  -18.2080    0.0000 O   0  0  0  0  0  0  0  0  0  0  0  0
   11.0967  -18.1607    0.0000 O   0  0  0  0  0  0  0  0  0  0  0  0
   13.7761  -22.6128    0.0000 C   0  0  0  0  0  0  0  0  0  0  0  0
   15.0886  -23.3390    0.0000 C   0  0  0  0  0  0  0  0  0  0  0  0
   13.7490  -21.1130    0.0000 O   0  0  0  0  0  0  0  0  0  0  0  0
   15.1116  -24.8410    0.0000 C   0  0  0  0  0  0  0  0  0  0  0  0
   16.4225  -25.5669    0.0000 C   0  0  0  0  0  0  0  0  0  0  0  0
   17.7094  -24.7934    0.0000 C   0  0  0  0  0  0  0  0  0  0  0  0
   17.6772  -23.2859    0.0000 C   0  0  0  0  0  0  0  0  0  0  0  0
   16.3654  -22.5666    0.0000 C   0  0  0  0  0  0  0  0  0  0  0  0
   18.9596  -22.5079    0.0000 O   0  0  0  0  0  0  0  0  0  0  0  0
   18.9271  -21.0084    0.0000 C   0  0  0  0  0  0  0  0  0  0  0  0
   19.0229  -25.5180    0.0000 O   0  0  0  0  0  0  0  0  0  0  0  0
   19.0522  -27.0176    0.0000 C   0  0  0  0  0  0  0  0  0  0  0  0
   16.4490  -27.0667    0.0000 O   0  0  0  0  0  0  0  0  0  0  0  0
   15.1636  -27.8395    0.0000 C   0  0  0  0  0  0  0  0  0  0  0  0
    7.2957  -23.4808    0.0000 C   0  0  0  0  0  0  0  0  0  0  0  0
    5.9832  -22.7508    0.0000 C   0  0  0  0  0  0  0  0  0  0  0  0
    4.6988  -23.5230    0.0000 C   0  0  0  0  0  0  0  0  0  0  0  0
    4.7253  -25.0243    0.0000 C   0  0  0  0  0  0  0  0  0  0  0  0
    6.0470  -25.7502    0.0000 C   0  0  0  0  0  0  0  0  0  0  0  0
    7.3257  -24.9738    0.0000 C   0  0  0  0  0  0  0  0  0  0  0  0
    3.4411  -25.7996    0.0000 Br  0  0  0  0  0  0  0  0  0  0  0  0
 15 16  2  0  0  0  0
 16 17  1  0  0  0  0
  8  9  2  0  0  0  0
 17 18  2  0  0  0  0
 18 12  1  0  0  0  0
  3  5  1  1  0  0  0
 17 19  1  0  0  0  0
  8 10  1  0  0  0  0
 19 20  1  0  0  0  0
  2  3  1  0  0  0  0
 16 21  1  0  0  0  0
  5 11  1  0  0  0  0
 21 22  1  0  0  0  0
  3  6  1  0  0  0  0
 15 23  1  0  0  0  0
 11 12  1  0  0  0  0
 23 24  1  0  0  0  0
  1  2  1  0  0  0  0
  1 25  1  0  0  0  0
 11 13  2  0  0  0  0
 25 26  2  0  0  0  0
  6  7  1  0  0  0  0
 26 27  1  0  0  0  0
 12 14  2  0  0  0  0
 27 28  2  0  0  0  0
  2  4  2  0  0  0  0
 28 29  1  0  0  0  0
 14 15  1  0  0  0  0
 29 30  2  0  0  0  0
 30 25  1  0  0  0  0
  7  8  1  0  0  0  0
 28 31  1  0  0  0  0
M  END
> <Value>
4.377785977033705

> <Relation>
=

> <SourceURI>
mol:CHEMBL523279

$$$$

Generated by Molecular Materials Informatics

 31 32  0  0  0  0  0  0  0  0999 V2000
    8.6956    0.3234    0.0000 N   0  0  0  0  0  0  0  0  0  0  0  0
   10.0081   -0.4028    0.0000 C   0  0  0  0  0  0  0  0  0  0  0  0
   11.2932    0.3708    0.0000 C   0  0  0  0  0  0  0  0  0  0  0  0
   10.0352   -1.9026    0.0000 O   0  0  0  0  0  0  0  0  0  0  0  0
   12.6056   -0.3555    0.0000 N   0  0  0  0  0  0  0  0  0  0  0  0
   11.2659    1.8705    0.0000 C   0  0  0  0  0  0  0  0  0  0  0  0
    9.9536    2.5968    0.0000 C   0  0  0  0  0  0  0  0  0  0  0  0
    9.9263    4.0963    0.0000 C   0  0  0  0  0  0  0  0  0  0  0  0
    8.6137    4.8229    0.0000 O   0  0  0  0  0  0  0  0  0  0  0  0
   11.2114    4.8699    0.0000 O   0  0  0  0  0  0  0  0  0  0  0  0
   13.8909    0.4179    0.0000 C   0  0  0  0  0  0  0  0  0  0  0  0
   15.2032   -0.3083    0.0000 C   0  0  0  0  0  0  0  0  0  0  0  0
   13.8636    1.9177    0.0000 O   0  0  0  0  0  0  0  0  0  0  0  0
   15.2263   -1.8101    0.0000 C   0  0  0  0  0  0  0  0  0  0  0  0
   16.5373   -2.5361    0.0000 C   0  0  0  0  0  0  0  0  0  0  0  0
   17.8240   -1.7626    0.0000 C   0  0  0  0  0  0  0  0  0  0  0  0
   17.7918   -0.2552    0.0000 C   0  0  0  0  0  0  0  0  0  0  0  0
   16.4800    0.4643    0.0000 C   0  0  0  0  0  0  0  0  0  0  0  0
   19.0744    0.5228    0.0000 O   0  0  0  0  0  0  0  0  0  0  0  0
   19.0418    2.0225    0.0000 C   0  0  0  0  0  0  0  0  0  0  0  0
   19.1376   -2.4872    0.0000 O   0  0  0  0  0  0  0  0  0  0  0  0
   19.1669   -3.9868    0.0000 C   0  0  0  0  0  0  0  0  0  0  0  0
   16.5636   -4.0359    0.0000 O   0  0  0  0  0  0  0  0  0  0  0  0
   15.2783   -4.8088    0.0000 C   0  0  0  0  0  0  0  0  0  0  0  0
    7.4105   -0.4499    0.0000 C   0  0  0  0  0  0  0  0  0  0  0  0
    6.0979    0.2799    0.0000 C   0  0  0  0  0  0  0  0  0  0  0  0
    4.8135   -0.4923    0.0000 C   0  0  0  0  0  0  0  0  0  0  0  0
    4.8399   -1.9936    0.0000 C   0  0  0  0  0  0  0  0  0  0  0  0
    6.1615   -2.7194    0.0000 C   0  0  0  0  0  0  0  0  0  0  0  0
    7.4405   -1.9430    0.0000 C   0  0  0  0  0  0  0  0  0  0  0  0
    3.5559   -2.7688    0.0000 N   0  0  0  0  0  0  0  0  0  0  0  0
 15 16  2  0  0  0  0
 16 17  1  0  0  0  0
  8  9  2  0  0  0  0
 17 18  2  0  0  0  0
 18 12  1  0  0  0  0
  3  5  1  1  0  0  0
 17 19  1  0  0  0  0
  8 10  1  0  0  0  0
 19 20  1  0  0  0  0
  2  3  1  0  0  0  0
 16 21  1  0  0  0  0
  5 11  1  0  0  0  0
 21 22  1  0  0  0  0
  3  6  1  0  0  0  0
 15 23  1  0  0  0  0
 11 12  1  0  0  0  0
 23 24  1  0  0  0  0
  1  2  1  0  0  0  0
  1 25  1  0  0  0  0
 11 13  2  0  0  0  0
 25 26  2  0  0  0  0
  6  7  1  0  0  0  0
 26 27  1  0  0  0  0
 12 14  2  0  0  0  0
 27 28  2  0  0  0  0
  2  4  2  0  0  0  0
 28 29  1  0  0  0  0
 14 15  1  0  0  0  0
 29 30  2  0  0  0  0
 30 25  1  0  0  0  0
  7  8  1  0  0  0  0
 28 31  1  0  0  0  0
M  END
> <Value>
4.6307841425898575

> <Relation>
=

> <SourceURI>
mol:CHEMBL492065

$$$$

Generated by Molecular Materials Informatics

 33 34  0  0  0  0  0  0  0  0999 V2000
   -3.0264   -7.7754    0.0000 N   0  0  0  0  0  0  0  0  0  0  0  0
   -1.7137   -8.5016    0.0000 C   0  0  0  0  0  0  0  0  0  0  0  0
   -0.4285   -7.7280    0.0000 C   0  0  0  0  0  0  0  0  0  0  0  0
   -1.6866  -10.0014    0.0000 O   0  0  0  0  0  0  0  0  0  0  0  0
    0.8838   -8.4545    0.0000 N   0  0  0  0  0  0  0  0  0  0  0  0
   -0.4559   -6.2284    0.0000 C   0  0  0  0  0  0  0  0  0  0  0  0
   -1.7683   -5.5021    0.0000 C   0  0  0  0  0  0  0  0  0  0  0  0
   -1.7955   -4.0025    0.0000 C   0  0  0  0  0  0  0  0  0  0  0  0
   -3.1080   -3.2761    0.0000 O   0  0  0  0  0  0  0  0  0  0  0  0
   -0.5103   -3.2290    0.0000 O   0  0  0  0  0  0  0  0  0  0  0  0
    2.1689   -7.6809    0.0000 C   0  0  0  0  0  0  0  0  0  0  0  0
    3.4814   -8.4071    0.0000 C   0  0  0  0  0  0  0  0  0  0  0  0
    2.1418   -6.1811    0.0000 O   0  0  0  0  0  0  0  0  0  0  0  0
    3.5043   -9.9090    0.0000 C   0  0  0  0  0  0  0  0  0  0  0  0
    4.8154  -10.6350    0.0000 C   0  0  0  0  0  0  0  0  0  0  0  0
    6.1020   -9.8614    0.0000 C   0  0  0  0  0  0  0  0  0  0  0  0
    6.0699   -8.3540    0.0000 C   0  0  0  0  0  0  0  0  0  0  0  0
    4.7581   -7.6347    0.0000 C   0  0  0  0  0  0  0  0  0  0  0  0
    7.3526   -7.5760    0.0000 O   0  0  0  0  0  0  0  0  0  0  0  0
    7.3198   -6.0764    0.0000 C   0  0  0  0  0  0  0  0  0  0  0  0
    7.4156  -10.5861    0.0000 O   0  0  0  0  0  0  0  0  0  0  0  0
    7.4449  -12.0855    0.0000 C   0  0  0  0  0  0  0  0  0  0  0  0
    4.8417  -12.1348    0.0000 O   0  0  0  0  0  0  0  0  0  0  0  0
    3.5563  -12.9075    0.0000 C   0  0  0  0  0  0  0  0  0  0  0  0
   -4.3113   -8.5489    0.0000 C   0  0  0  0  0  0  0  0  0  0  0  0
   -5.6238   -7.8189    0.0000 C   0  0  0  0  0  0  0  0  0  0  0  0
   -6.9083   -8.5911    0.0000 C   0  0  0  0  0  0  0  0  0  0  0  0
   -6.8819  -10.0925    0.0000 C   0  0  0  0  0  0  0  0  0  0  0  0
   -5.5603  -10.8183    0.0000 C   0  0  0  0  0  0  0  0  0  0  0  0
   -4.2813  -10.0417    0.0000 C   0  0  0  0  0  0  0  0  0  0  0  0
   -8.1659  -10.8675    0.0000 C   0  0  0  0  0  0  0  0  0  0  0  0
   -9.4793  -10.1432    0.0000 O   0  0  0  0  0  0  0  0  0  0  0  0
   -8.1366  -12.3673    0.0000 O   0  0  0  0  0  0  0  0  0  0  0  0
 16 17  1  0  0  0  0
  8  9  2  0  0  0  0
 17 18  2  0  0  0  0
 18 12  1  0  0  0  0
  3  5  1  1  0  0  0
 17 19  1  0  0  0  0
  8 10  1  0  0  0  0
 19 20  1  0  0  0  0
  2  3  1  0  0  0  0
 16 21  1  0  0  0  0
  5 11  1  0  0  0  0
 21 22  1  0  0  0  0
  3  6  1  0  0  0  0
 15 23  1  0  0  0  0
 11 12  1  0  0  0  0
 23 24  1  0  0  0  0
  1  2  1  0  0  0  0
  1 25  1  0  0  0  0
 11 13  2  0  0  0  0
 25 26  2  0  0  0  0
  6  7  1  0  0  0  0
 26 27  1  0  0  0  0
 12 14  2  0  0  0  0
 27 28  2  0  0  0  0
  2  4  2  0  0  0  0
 28 29  1  0  0  0  0
 14 15  1  0  0  0  0
 29 30  2  0  0  0  0
 30 25  1  0  0  0  0
  7  8  1  0  0  0  0
 28 31  1  0  0  0  0
 15 16  2  0  0  0  0
 31 32  2  0  0  0  0
 31 33  1  0  0  0  0
M  END
> <Value>
4.181774106386045

> <Relation>
=

> <SourceURI>
mol:CHEMBL489026

$$$$

Generated by Molecular Materials Informatics

 34 35  0  0  0  0  0  0  0  0999 V2000
    9.2799   -7.9127    0.0000 N   0  0  0  0  0  0  0  0  0  0  0  0
   10.5924   -8.6389    0.0000 C   0  0  0  0  0  0  0  0  0  0  0  0
   11.8776   -7.8655    0.0000 C   0  0  0  0  0  0  0  0  0  0  0  0
   10.6196  -10.1387    0.0000 O   0  0  0  0  0  0  0  0  0  0  0  0
   13.1899   -8.5918    0.0000 N   0  0  0  0  0  0  0  0  0  0  0  0
   11.8502   -6.3659    0.0000 C   0  0  0  0  0  0  0  0  0  0  0  0
   10.5378   -5.6395    0.0000 C   0  0  0  0  0  0  0  0  0  0  0  0
   10.5106   -4.1399    0.0000 C   0  0  0  0  0  0  0  0  0  0  0  0
    9.1980   -3.4136    0.0000 O   0  0  0  0  0  0  0  0  0  0  0  0
   11.7958   -3.3663    0.0000 O   0  0  0  0  0  0  0  0  0  0  0  0
   14.4750   -7.8182    0.0000 C   0  0  0  0  0  0  0  0  0  0  0  0
   15.7875   -8.5444    0.0000 C   0  0  0  0  0  0  0  0  0  0  0  0
   14.4479   -6.3184    0.0000 O   0  0  0  0  0  0  0  0  0  0  0  0
   15.8104  -10.0463    0.0000 C   0  0  0  0  0  0  0  0  0  0  0  0
   17.1213  -10.7723    0.0000 C   0  0  0  0  0  0  0  0  0  0  0  0
   18.4082   -9.9987    0.0000 C   0  0  0  0  0  0  0  0  0  0  0  0
   18.3760   -8.4915    0.0000 C   0  0  0  0  0  0  0  0  0  0  0  0
   17.0642   -7.7720    0.0000 C   0  0  0  0  0  0  0  0  0  0  0  0
   19.6585   -7.7135    0.0000 O   0  0  0  0  0  0  0  0  0  0  0  0
   19.6260   -6.2139    0.0000 C   0  0  0  0  0  0  0  0  0  0  0  0
   19.7218  -10.7234    0.0000 O   0  0  0  0  0  0  0  0  0  0  0  0
   19.7509  -12.2228    0.0000 C   0  0  0  0  0  0  0  0  0  0  0  0
   17.1478  -12.2721    0.0000 O   0  0  0  0  0  0  0  0  0  0  0  0
   15.8624  -13.0448    0.0000 C   0  0  0  0  0  0  0  0  0  0  0  0
    7.9950   -8.6862    0.0000 C   0  0  0  0  0  0  0  0  0  0  0  0
    6.6823   -7.9562    0.0000 C   0  0  0  0  0  0  0  0  0  0  0  0
    5.3980   -8.7284    0.0000 C   0  0  0  0  0  0  0  0  0  0  0  0
    5.4243  -10.2298    0.0000 C   0  0  0  0  0  0  0  0  0  0  0  0
    6.7459  -10.9556    0.0000 C   0  0  0  0  0  0  0  0  0  0  0  0
    8.0250  -10.1790    0.0000 C   0  0  0  0  0  0  0  0  0  0  0  0
    4.1405  -11.0048    0.0000 C   0  0  0  0  0  0  0  0  0  0  0  0
    2.8269  -10.2805    0.0000 O   0  0  0  0  0  0  0  0  0  0  0  0
    4.1696  -12.5046    0.0000 O   0  0  0  0  0  0  0  0  0  0  0  0
    4.0858   -8.0016    0.0000 O   0  0  0  0  0  0  0  0  0  0  0  0
  8  9  2  0  0  0  0
 17 18  2  0  0  0  0
 18 12  1  0  0  0  0
  3  5  1  1  0  0  0
 17 19  1  0  0  0  0
  8 10  1  0  0  0  0
 19 20  1  0  0  0  0
  2  3  1  0  0  0  0
 16 21  1  0  0  0  0
  5 11  1  0  0  0  0
 21 22  1  0  0  0  0
  3  6  1  0  0  0  0
 15 23  1  0  0  0  0
 11 12  1  0  0  0  0
 23 24  1  0  0  0  0
  1  2  1  0  0  0  0
  1 25  1  0  0  0  0
 11 13  2  0  0  0  0
 25 26  2  0  0  0  0
  6  7  1  0  0  0  0
 26 27  1  0  0  0  0
 12 14  2  0  0  0  0
 27 28  2  0  0  0  0
  2  4  2  0  0  0  0
 28 29  1  0  0  0  0
 14 15  1  0  0  0  0
 29 30  2  0  0  0  0
 30 25  1  0  0  0  0
  7  8  1  0  0  0  0
 28 31  1  0  0  0  0
 15 16  2  0  0  0  0
 31 32  2  0  0  0  0
 31 33  1  0  0  0  0
 16 17  1  0  0  0  0
 27 34  1  0  0  0  0
M  END
> <Value>
4.2380721615794705

> <Relation>
=

> <SourceURI>
mol:CHEMBL489231

$$$$

Generated by Molecular Materials Informatics

 32 33  0  0  0  0  0  0  0  0999 V2000
   -4.2019  -15.8917    0.0000 N   0  0  0  0  0  0  0  0  0  0  0  0
   -2.8893  -16.6181    0.0000 C   0  0  0  0  0  0  0  0  0  0  0  0
   -1.6041  -15.8446    0.0000 C   0  0  0  0  0  0  0  0  0  0  0  0
   -2.8622  -18.1178    0.0000 O   0  0  0  0  0  0  0  0  0  0  0  0
   -0.2916  -16.5708    0.0000 N   0  0  0  0  0  0  0  0  0  0  0  0
   -1.6315  -14.3447    0.0000 C   0  0  0  0  0  0  0  0  0  0  0  0
   -2.9440  -13.6184    0.0000 C   0  0  0  0  0  0  0  0  0  0  0  0
   -2.9711  -12.1187    0.0000 C   0  0  0  0  0  0  0  0  0  0  0  0
   -4.2837  -11.3925    0.0000 O   0  0  0  0  0  0  0  0  0  0  0  0
   -1.6859  -11.3452    0.0000 O   0  0  0  0  0  0  0  0  0  0  0  0
    0.9935  -15.7973    0.0000 C   0  0  0  0  0  0  0  0  0  0  0  0
    2.3060  -16.5236    0.0000 C   0  0  0  0  0  0  0  0  0  0  0  0
    0.9665  -14.2976    0.0000 O   0  0  0  0  0  0  0  0  0  0  0  0
    2.3291  -18.0255    0.0000 C   0  0  0  0  0  0  0  0  0  0  0  0
    3.6401  -18.7517    0.0000 C   0  0  0  0  0  0  0  0  0  0  0  0
    4.9269  -17.9780    0.0000 C   0  0  0  0  0  0  0  0  0  0  0  0
    4.8947  -16.4706    0.0000 C   0  0  0  0  0  0  0  0  0  0  0  0
    3.5830  -15.7511    0.0000 C   0  0  0  0  0  0  0  0  0  0  0  0
    6.1774  -15.6926    0.0000 O   0  0  0  0  0  0  0  0  0  0  0  0
    6.1448  -14.1927    0.0000 C   0  0  0  0  0  0  0  0  0  0  0  0
    6.2406  -18.7024    0.0000 O   0  0  0  0  0  0  0  0  0  0  0  0
    6.2699  -20.2024    0.0000 C   0  0  0  0  0  0  0  0  0  0  0  0
    3.6665  -20.2514    0.0000 O   0  0  0  0  0  0  0  0  0  0  0  0
    2.3811  -21.0244    0.0000 C   0  0  0  0  0  0  0  0  0  0  0  0
   -5.4871  -16.6654    0.0000 C   0  0  0  0  0  0  0  0  0  0  0  0
   -6.7997  -15.9353    0.0000 C   0  0  0  0  0  0  0  0  0  0  0  0
   -8.0842  -16.7076    0.0000 C   0  0  0  0  0  0  0  0  0  0  0  0
   -8.0578  -18.2091    0.0000 C   0  0  0  0  0  0  0  0  0  0  0  0
   -6.7361  -18.9348    0.0000 C   0  0  0  0  0  0  0  0  0  0  0  0
   -5.4571  -18.1582    0.0000 C   0  0  0  0  0  0  0  0  0  0  0  0
   -6.8250  -14.4356    0.0000 F   0  0  0  0  0  0  0  0  0  0  0  0
   -9.3417  -18.9843    0.0000 F   0  0  0  0  0  0  0  0  0  0  0  0
 16 17  1  0  0  0  0
  8  9  2  0  0  0  0
 17 18  2  0  0  0  0
 18 12  1  0  0  0  0
  3  5  1  1  0  0  0
 17 19  1  0  0  0  0
  8 10  1  0  0  0  0
 19 20  1  0  0  0  0
  2  3  1  0  0  0  0
 16 21  1  0  0  0  0
  5 11  1  0  0  0  0
 21 22  1  0  0  0  0
  3  6  1  0  0  0  0
 15 23  1  0  0  0  0
 11 12  1  0  0  0  0
 23 24  1  0  0  0  0
  1  2  1  0  0  0  0
  1 25  1  0  0  0  0
 11 13  2  0  0  0  0
 25 26  2  0  0  0  0
  6  7  1  0  0  0  0
 26 27  1  0  0  0  0
 12 14  2  0  0  0  0
 27 28  2  0  0  0  0
  2  4  2  0  0  0  0
 28 29  1  0  0  0  0
 14 15  1  0  0  0  0
 29 30  2  0  0  0  0
 30 25  1  0  0  0  0
  7  8  1  0  0  0  0
 26 31  1  0  0  0  0
 15 16  2  0  0  0  0
 28 32  1  0  0  0  0
M  END
> <Value>
4.047691990337875

> <Relation>
=

> <SourceURI>
mol:CHEMBL489232

$$$$

Generated by Molecular Materials Informatics

 32 33  0  0  0  0  0  0  0  0999 V2000
    2.4390   -3.7653    0.0000 N   0  0  0  0  0  0  0  0  0  0  0  0
    3.7492   -4.4893    0.0000 C   0  0  0  0  0  0  0  0  0  0  0  0
    5.0297   -3.7135    0.0000 C   0  0  0  0  0  0  0  0  0  0  0  0
    3.7708   -5.9888    0.0000 O   0  0  0  0  0  0  0  0  0  0  0  0
    6.3481   -4.4371    0.0000 N   0  0  0  0  0  0  0  0  0  0  0  0
    5.0079   -2.2135    0.0000 C   0  0  0  0  0  0  0  0  0  0  0  0
    3.6892   -1.4899    0.0000 C   0  0  0  0  0  0  0  0  0  0  0  0
    3.6676    0.0095    0.0000 C   0  0  0  0  0  0  0  0  0  0  0  0
    2.3572    0.7419    0.0000 O   0  0  0  0  0  0  0  0  0  0  0  0
    4.9481    0.7855    0.0000 O   0  0  0  0  0  0  0  0  0  0  0  0
    7.6286   -3.6697    0.0000 C   0  0  0  0  0  0  0  0  0  0  0  0
    8.9386   -4.3933    0.0000 C   0  0  0  0  0  0  0  0  0  0  0  0
    7.6068   -2.1701    0.0000 O   0  0  0  0  0  0  0  0  0  0  0  0
    8.9639   -5.8953    0.0000 C   0  0  0  0  0  0  0  0  0  0  0  0
   10.2726   -6.6191    0.0000 C   0  0  0  0  0  0  0  0  0  0  0  0
   11.5629   -5.8431    0.0000 C   0  0  0  0  0  0  0  0  0  0  0  0
   11.5275   -4.3435    0.0000 C   0  0  0  0  0  0  0  0  0  0  0  0
   10.2180   -3.6188    0.0000 C   0  0  0  0  0  0  0  0  0  0  0  0
   12.8133   -3.5628    0.0000 O   0  0  0  0  0  0  0  0  0  0  0  0
   12.7775   -2.0630    0.0000 C   0  0  0  0  0  0  0  0  0  0  0  0
   12.8746   -6.5733    0.0000 O   0  0  0  0  0  0  0  0  0  0  0  0
   12.9067   -8.0731    0.0000 C   0  0  0  0  0  0  0  0  0  0  0  0
   10.3017   -8.1189    0.0000 O   0  0  0  0  0  0  0  0  0  0  0  0
    9.0210   -8.8938    0.0000 C   0  0  0  0  0  0  0  0  0  0  0  0
    1.1505   -4.5328    0.0000 C   0  0  0  0  0  0  0  0  0  0  0  0
   -0.1602   -3.8048    0.0000 C   0  0  0  0  0  0  0  0  0  0  0  0
   -1.4478   -4.5791    0.0000 C   0  0  0  0  0  0  0  0  0  0  0  0
   -1.4188   -6.0808    0.0000 C   0  0  0  0  0  0  0  0  0  0  0  0
   -0.0984   -6.8039    0.0000 C   0  0  0  0  0  0  0  0  0  0  0  0
    1.1834   -6.0248    0.0000 C   0  0  0  0  0  0  0  0  0  0  0  0
   -0.1882   -2.3053    0.0000 Cl  0  0  0  0  0  0  0  0  0  0  0  0
   -0.0624   -8.3118    0.0000 Cl  0  0  0  0  0  0  0  0  0  0  0  0
 16 17  1  0  0  0  0
  8  9  2  0  0  0  0
 17 18  2  0  0  0  0
 18 12  1  0  0  0  0
  3  5  1  1  0  0  0
 17 19  1  0  0  0  0
  8 10  1  0  0  0  0
 19 20  1  0  0  0  0
  2  3  1  0  0  0  0
 16 21  1  0  0  0  0
  5 11  1  0  0  0  0
 21 22  1  0  0  0  0
  3  6  1  0  0  0  0
 15 23  1  0  0  0  0
 11 12  1  0  0  0  0
 23 24  1  0  0  0  0
  1  2  1  0  0  0  0
  1 25  1  0  0  0  0
 11 13  2  0  0  0  0
 25 26  2  0  0  0  0
  6  7  1  0  0  0  0
 26 27  1  0  0  0  0
 12 14  2  0  0  0  0
 27 28  2  0  0  0  0
  2  4  2  0  0  0  0
 28 29  1  0  0  0  0
 14 15  1  0  0  0  0
 29 30  2  0  0  0  0
 30 25  1  0  0  0  0
  7  8  1  0  0  0  0
 26 31  1  0  0  0  0
 15 16  2  0  0  0  0
 29 32  1  0  0  0  0
M  END
> <Value>
4.094743951251549

> <Relation>
=

> <SourceURI>
mol:CHEMBL523936

$$$$

Generated by Molecular Materials Informatics

 32 33  0  0  0  0  0  0  0  0999 V2000
   -3.8412  -23.5151    0.0000 N   0  0  0  0  0  0  0  0  0  0  0  0
   -2.5289  -24.2413    0.0000 C   0  0  0  0  0  0  0  0  0  0  0  0
   -1.2436  -23.4679    0.0000 C   0  0  0  0  0  0  0  0  0  0  0  0
   -2.5014  -25.7411    0.0000 O   0  0  0  0  0  0  0  0  0  0  0  0
    0.0688  -24.1940    0.0000 N   0  0  0  0  0  0  0  0  0  0  0  0
   -1.2709  -21.9681    0.0000 C   0  0  0  0  0  0  0  0  0  0  0  0
   -2.5832  -21.2420    0.0000 C   0  0  0  0  0  0  0  0  0  0  0  0
   -2.6107  -19.7422    0.0000 C   0  0  0  0  0  0  0  0  0  0  0  0
   -3.9230  -19.0159    0.0000 O   0  0  0  0  0  0  0  0  0  0  0  0
   -1.3255  -18.9686    0.0000 O   0  0  0  0  0  0  0  0  0  0  0  0
    1.3541  -23.4206    0.0000 C   0  0  0  0  0  0  0  0  0  0  0  0
    2.6666  -24.1469    0.0000 C   0  0  0  0  0  0  0  0  0  0  0  0
    1.3266  -21.9208    0.0000 O   0  0  0  0  0  0  0  0  0  0  0  0
    2.6895  -25.6487    0.0000 C   0  0  0  0  0  0  0  0  0  0  0  0
    4.0003  -26.3749    0.0000 C   0  0  0  0  0  0  0  0  0  0  0  0
    5.2872  -25.6011    0.0000 C   0  0  0  0  0  0  0  0  0  0  0  0
    5.2550  -24.0937    0.0000 C   0  0  0  0  0  0  0  0  0  0  0  0
    3.9432  -23.3744    0.0000 C   0  0  0  0  0  0  0  0  0  0  0  0
    6.5375  -23.3157    0.0000 O   0  0  0  0  0  0  0  0  0  0  0  0
    6.5048  -21.8161    0.0000 C   0  0  0  0  0  0  0  0  0  0  0  0
    6.6006  -26.3256    0.0000 O   0  0  0  0  0  0  0  0  0  0  0  0
    6.6300  -27.8253    0.0000 C   0  0  0  0  0  0  0  0  0  0  0  0
    4.0269  -27.8744    0.0000 O   0  0  0  0  0  0  0  0  0  0  0  0
    2.7413  -28.6473    0.0000 C   0  0  0  0  0  0  0  0  0  0  0  0
   -5.1264  -24.2884    0.0000 C   0  0  0  0  0  0  0  0  0  0  0  0
   -6.4391  -23.5584    0.0000 C   0  0  0  0  0  0  0  0  0  0  0  0
   -7.7232  -24.3309    0.0000 C   0  0  0  0  0  0  0  0  0  0  0  0
   -7.6969  -25.8320    0.0000 C   0  0  0  0  0  0  0  0  0  0  0  0
   -6.3753  -26.5578    0.0000 C   0  0  0  0  0  0  0  0  0  0  0  0
   -5.0964  -25.7814    0.0000 C   0  0  0  0  0  0  0  0  0  0  0  0
   -9.0353  -23.6039    0.0000 Cl  0  0  0  0  0  0  0  0  0  0  0  0
   -8.9810  -26.6072    0.0000 F   0  0  0  0  0  0  0  0  0  0  0  0
 16 17  1  0  0  0  0
  8  9  2  0  0  0  0
 17 18  2  0  0  0  0
 18 12  1  0  0  0  0
  3  5  1  1  0  0  0
 17 19  1  0  0  0  0
  8 10  1  0  0  0  0
 19 20  1  0  0  0  0
  2  3  1  0  0  0  0
 16 21  1  0  0  0  0
  5 11  1  0  0  0  0
 21 22  1  0  0  0  0
  3  6  1  0  0  0  0
 15 23  1  0  0  0  0
 11 12  1  0  0  0  0
 23 24  1  0  0  0  0
  1  2  1  0  0  0  0
  1 25  1  0  0  0  0
 11 13  2  0  0  0  0
 25 26  2  0  0  0  0
  6  7  1  0  0  0  0
 26 27  1  0  0  0  0
 12 14  2  0  0  0  0
 27 28  2  0  0  0  0
  2  4  2  0  0  0  0
 28 29  1  0  0  0  0
 14 15  1  0  0  0  0
 29 30  2  0  0  0  0
 30 25  1  0  0  0  0
  7  8  1  0  0  0  0
 27 31  1  0  0  0  0
 15 16  2  0  0  0  0
 28 32  1  0  0  0  0
M  END
> <Value>
4.105130343254747

> <Relation>
=

> <SourceURI>
mol:CHEMBL477656

$$$$

Generated by Molecular Materials Informatics

 32 33  0  0  0  0  0  0  0  0999 V2000
    9.0678  -23.4053    0.0000 N   0  0  0  0  0  0  0  0  0  0  0  0
   10.3803  -24.1316    0.0000 C   0  0  0  0  0  0  0  0  0  0  0  0
   11.6653  -23.3582    0.0000 C   0  0  0  0  0  0  0  0  0  0  0  0
   10.4076  -25.6314    0.0000 O   0  0  0  0  0  0  0  0  0  0  0  0
   12.9780  -24.0843    0.0000 N   0  0  0  0  0  0  0  0  0  0  0  0
   11.6383  -21.8582    0.0000 C   0  0  0  0  0  0  0  0  0  0  0  0
   10.3258  -21.1321    0.0000 C   0  0  0  0  0  0  0  0  0  0  0  0
   10.2985  -19.6323    0.0000 C   0  0  0  0  0  0  0  0  0  0  0  0
    8.9860  -18.9061    0.0000 O   0  0  0  0  0  0  0  0  0  0  0  0
   11.5835  -18.8587    0.0000 O   0  0  0  0  0  0  0  0  0  0  0  0
   14.2633  -23.3109    0.0000 C   0  0  0  0  0  0  0  0  0  0  0  0
   15.5756  -24.0371    0.0000 C   0  0  0  0  0  0  0  0  0  0  0  0
   14.2358  -21.8111    0.0000 O   0  0  0  0  0  0  0  0  0  0  0  0
   15.5987  -25.5390    0.0000 C   0  0  0  0  0  0  0  0  0  0  0  0
   16.9093  -26.2652    0.0000 C   0  0  0  0  0  0  0  0  0  0  0  0
   18.1964  -25.4914    0.0000 C   0  0  0  0  0  0  0  0  0  0  0  0
   18.1642  -23.9840    0.0000 C   0  0  0  0  0  0  0  0  0  0  0  0
   16.8524  -23.2647    0.0000 C   0  0  0  0  0  0  0  0  0  0  0  0
   19.4467  -23.2060    0.0000 O   0  0  0  0  0  0  0  0  0  0  0  0
   19.4140  -21.7062    0.0000 C   0  0  0  0  0  0  0  0  0  0  0  0
   19.5098  -26.2159    0.0000 O   0  0  0  0  0  0  0  0  0  0  0  0
   19.5393  -27.7157    0.0000 C   0  0  0  0  0  0  0  0  0  0  0  0
   16.9361  -27.7647    0.0000 O   0  0  0  0  0  0  0  0  0  0  0  0
   15.6505  -28.5378    0.0000 C   0  0  0  0  0  0  0  0  0  0  0  0
    7.7826  -24.1787    0.0000 C   0  0  0  0  0  0  0  0  0  0  0  0
    6.4703  -23.4525    0.0000 C   0  0  0  0  0  0  0  0  0  0  0  0
    6.4501  -21.9571    0.0000 C   0  0  0  0  0  0  0  0  0  0  0  0
    5.1390  -21.2312    0.0000 C   0  0  0  0  0  0  0  0  0  0  0  0
    3.8520  -22.0048    0.0000 C   0  0  0  0  0  0  0  0  0  0  0  0
    3.8843  -23.5122    0.0000 C   0  0  0  0  0  0  0  0  0  0  0  0
    5.1961  -24.2312    0.0000 C   0  0  0  0  0  0  0  0  0  0  0  0
    2.6018  -24.2901    0.0000 Br  0  0  0  0  0  0  0  0  0  0  0  0
 16 17  1  0  0  0  0
  8  9  2  0  0  0  0
 17 18  2  0  0  0  0
 18 12  1  0  0  0  0
  3  5  1  1  0  0  0
 17 19  1  0  0  0  0
  8 10  1  0  0  0  0
 19 20  1  0  0  0  0
  2  3  1  0  0  0  0
 16 21  1  0  0  0  0
  5 11  1  0  0  0  0
 21 22  1  0  0  0  0
  3  6  1  0  0  0  0
 15 23  1  0  0  0  0
 11 12  1  0  0  0  0
 23 24  1  0  0  0  0
  1  2  1  0  0  0  0
  1 25  1  0  0  0  0
 11 13  2  0  0  0  0
 25 26  1  0  0  0  0
  6  7  1  0  0  0  0
 26 27  2  0  0  0  0
 12 14  2  0  0  0  0
 27 28  1  0  0  0  0
  2  4  2  0  0  0  0
 28 29  2  0  0  0  0
 14 15  1  0  0  0  0
 29 30  1  0  0  0  0
  7  8  1  0  0  0  0
 30 31  2  0  0  0  0
 31 26  1  0  0  0  0
 15 16  2  0  0  0  0
 30 32  1  0  0  0  0
M  END
> <Value>
3.7522721670902768

> <Relation>
=

> <SourceURI>
mol:CHEMBL477251

$$$$

Generated by Molecular Materials Informatics

 32 33  0  0  0  0  0  0  0  0999 V2000
   -3.3260   -0.3916    0.0000 N   0  0  0  0  0  0  0  0  0  0  0  0
   -2.0135   -1.1178    0.0000 C   0  0  0  0  0  0  0  0  0  0  0  0
   -0.7283   -0.3442    0.0000 C   0  0  0  0  0  0  0  0  0  0  0  0
   -1.9862   -2.6176    0.0000 O   0  0  0  0  0  0  0  0  0  0  0  0
    0.5842   -1.0707    0.0000 N   0  0  0  0  0  0  0  0  0  0  0  0
   -0.7555    1.1554    0.0000 C   0  0  0  0  0  0  0  0  0  0  0  0
   -2.0680    1.8818    0.0000 C   0  0  0  0  0  0  0  0  0  0  0  0
   -2.0951    3.3814    0.0000 C   0  0  0  0  0  0  0  0  0  0  0  0
   -3.4078    4.1077    0.0000 O   0  0  0  0  0  0  0  0  0  0  0  0
   -0.8101    4.1550    0.0000 O   0  0  0  0  0  0  0  0  0  0  0  0
    1.8695   -0.2971    0.0000 C   0  0  0  0  0  0  0  0  0  0  0  0
    3.1818   -1.0233    0.0000 C   0  0  0  0  0  0  0  0  0  0  0  0
    1.8422    1.2029    0.0000 O   0  0  0  0  0  0  0  0  0  0  0  0
    3.2047   -2.5252    0.0000 C   0  0  0  0  0  0  0  0  0  0  0  0
    4.5158   -3.2512    0.0000 C   0  0  0  0  0  0  0  0  0  0  0  0
    5.8027   -2.4776    0.0000 C   0  0  0  0  0  0  0  0  0  0  0  0
    5.7705   -0.9702    0.0000 C   0  0  0  0  0  0  0  0  0  0  0  0
    4.4587   -0.2509    0.0000 C   0  0  0  0  0  0  0  0  0  0  0  0
    7.0530   -0.1922    0.0000 O   0  0  0  0  0  0  0  0  0  0  0  0
    7.0204    1.3074    0.0000 C   0  0  0  0  0  0  0  0  0  0  0  0
    7.1163   -3.2023    0.0000 O   0  0  0  0  0  0  0  0  0  0  0  0
    7.1454   -4.7019    0.0000 C   0  0  0  0  0  0  0  0  0  0  0  0
    4.5421   -4.7510    0.0000 O   0  0  0  0  0  0  0  0  0  0  0  0
    3.2567   -5.5239    0.0000 C   0  0  0  0  0  0  0  0  0  0  0  0
   -4.6111   -1.1651    0.0000 C   0  0  0  0  0  0  0  0  0  0  0  0
   -5.9236   -0.4389    0.0000 C   0  0  0  0  0  0  0  0  0  0  0  0
   -5.9438    1.0565    0.0000 C   0  0  0  0  0  0  0  0  0  0  0  0
   -7.2546    1.7829    0.0000 C   0  0  0  0  0  0  0  0  0  0  0  0
   -8.5417    1.0092    0.0000 C   0  0  0  0  0  0  0  0  0  0  0  0
   -8.5095   -0.4982    0.0000 C   0  0  0  0  0  0  0  0  0  0  0  0
   -7.1976   -1.2176    0.0000 C   0  0  0  0  0  0  0  0  0  0  0  0
   -9.7919   -1.2765    0.0000 I   0  0  0  0  0  0  0  0  0  0  0  0
 16 17  1  0  0  0  0
  8  9  2  0  0  0  0
 17 18  2  0  0  0  0
 18 12  1  0  0  0  0
  3  5  1  1  0  0  0
 17 19  1  0  0  0  0
  8 10  1  0  0  0  0
 19 20  1  0  0  0  0
  2  3  1  0  0  0  0
 16 21  1  0  0  0  0
  5 11  1  0  0  0  0
 21 22  1  0  0  0  0
  3  6  1  0  0  0  0
 15 23  1  0  0  0  0
 11 12  1  0  0  0  0
 23 24  1  0  0  0  0
  1  2  1  0  0  0  0
  1 25  1  0  0  0  0
 11 13  2  0  0  0  0
 25 26  1  0  0  0  0
  6  7  1  0  0  0  0
 26 27  2  0  0  0  0
 12 14  2  0  0  0  0
 27 28  1  0  0  0  0
  2  4  2  0  0  0  0
 28 29  2  0  0  0  0
 14 15  1  0  0  0  0
 29 30  1  0  0  0  0
  7  8  1  0  0  0  0
 30 31  2  0  0  0  0
 31 26  1  0  0  0  0
 15 16  2  0  0  0  0
 30 32  1  0  0  0  0
M  END
> <Value>
4.18111458540599

> <Relation>
=

> <SourceURI>
mol:CHEMBL477449

$$$$

Generated by Molecular Materials Informatics

 33 34  0  0  0  0  0  0  0  0999 V2000
    8.6322   -0.1897    0.0000 N   0  0  0  0  0  0  0  0  0  0  0  0
    9.9446   -0.9161    0.0000 C   0  0  0  0  0  0  0  0  0  0  0  0
   11.2299   -0.1426    0.0000 C   0  0  0  0  0  0  0  0  0  0  0  0
    9.9719   -2.4158    0.0000 O   0  0  0  0  0  0  0  0  0  0  0  0
   12.5423   -0.8688    0.0000 N   0  0  0  0  0  0  0  0  0  0  0  0
   11.2026    1.3573    0.0000 C   0  0  0  0  0  0  0  0  0  0  0  0
    9.8900    2.0835    0.0000 C   0  0  0  0  0  0  0  0  0  0  0  0
    9.8629    3.5834    0.0000 C   0  0  0  0  0  0  0  0  0  0  0  0
    8.5505    4.3096    0.0000 O   0  0  0  0  0  0  0  0  0  0  0  0
   11.1481    4.3567    0.0000 O   0  0  0  0  0  0  0  0  0  0  0  0
   13.8275   -0.0953    0.0000 C   0  0  0  0  0  0  0  0  0  0  0  0
   15.1401   -0.8215    0.0000 C   0  0  0  0  0  0  0  0  0  0  0  0
   13.8004    1.4046    0.0000 O   0  0  0  0  0  0  0  0  0  0  0  0
   15.1630   -2.3234    0.0000 C   0  0  0  0  0  0  0  0  0  0  0  0
   16.4740   -3.0497    0.0000 C   0  0  0  0  0  0  0  0  0  0  0  0
   17.7610   -2.2760    0.0000 C   0  0  0  0  0  0  0  0  0  0  0  0
   17.7288   -0.7686    0.0000 C   0  0  0  0  0  0  0  0  0  0  0  0
   16.4169   -0.0491    0.0000 C   0  0  0  0  0  0  0  0  0  0  0  0
   19.0112    0.0094    0.0000 O   0  0  0  0  0  0  0  0  0  0  0  0
   18.9787    1.5093    0.0000 C   0  0  0  0  0  0  0  0  0  0  0  0
   19.0745   -3.0004    0.0000 O   0  0  0  0  0  0  0  0  0  0  0  0
   19.1036   -4.5003    0.0000 C   0  0  0  0  0  0  0  0  0  0  0  0
   16.5005   -4.5494    0.0000 O   0  0  0  0  0  0  0  0  0  0  0  0
   15.2150   -5.3223    0.0000 C   0  0  0  0  0  0  0  0  0  0  0  0
    7.3470   -0.9634    0.0000 C   0  0  0  0  0  0  0  0  0  0  0  0
    6.0346   -0.2372    0.0000 C   0  0  0  0  0  0  0  0  0  0  0  0
    6.0144    1.2582    0.0000 C   0  0  0  0  0  0  0  0  0  0  0  0
    4.7034    1.9844    0.0000 C   0  0  0  0  0  0  0  0  0  0  0  0
    3.4163    1.2109    0.0000 C   0  0  0  0  0  0  0  0  0  0  0  0
    3.4484   -0.2966    0.0000 C   0  0  0  0  0  0  0  0  0  0  0  0
    4.7605   -1.0159    0.0000 C   0  0  0  0  0  0  0  0  0  0  0  0
    7.3015    2.0284    0.0000 F   0  0  0  0  0  0  0  0  0  0  0  0
    2.1029    1.9355    0.0000 Cl  0  0  0  0  0  0  0  0  0  0  0  0
 16 17  1  0  0  0  0
  8  9  2  0  0  0  0
 17 18  2  0  0  0  0
 18 12  1  0  0  0  0
  3  5  1  1  0  0  0
 17 19  1  0  0  0  0
  8 10  1  0  0  0  0
 19 20  1  0  0  0  0
  2  3  1  0  0  0  0
 16 21  1  0  0  0  0
  5 11  1  0  0  0  0
 21 22  1  0  0  0  0
  3  6  1  0  0  0  0
 15 23  1  0  0  0  0
 11 12  1  0  0  0  0
 23 24  1  0  0  0  0
  1  2  1  0  0  0  0
  1 25  1  0  0  0  0
 11 13  2  0  0  0  0
 25 26  1  0  0  0  0
  6  7  1  0  0  0  0
 26 27  2  0  0  0  0
 12 14  2  0  0  0  0
 27 28  1  0  0  0  0
  2  4  2  0  0  0  0
 28 29  2  0  0  0  0
 14 15  1  0  0  0  0
 29 30  1  0  0  0  0
  7  8  1  0  0  0  0
 30 31  2  0  0  0  0
 31 26  1  0  0  0  0
 15 16  2  0  0  0  0
 27 32  1  0  0  0  0
 29 33  1  0  0  0  0
M  END
> <Value>
4.341035157335565

> <Relation>
=

> <SourceURI>
mol:CHEMBL514379

$$$$

Generated by Molecular Materials Informatics

 33 34  0  0  0  0  0  0  0  0999 V2000
   -2.0193   -8.3944    0.0000 N   0  0  0  0  0  0  0  0  0  0  0  0
   -0.7066   -9.1206    0.0000 C   0  0  0  0  0  0  0  0  0  0  0  0
    0.5786   -8.3472    0.0000 C   0  0  0  0  0  0  0  0  0  0  0  0
   -0.6795  -10.6206    0.0000 O   0  0  0  0  0  0  0  0  0  0  0  0
    1.8909   -9.0735    0.0000 N   0  0  0  0  0  0  0  0  0  0  0  0
    0.5512   -6.8474    0.0000 C   0  0  0  0  0  0  0  0  0  0  0  0
   -0.7612   -6.1211    0.0000 C   0  0  0  0  0  0  0  0  0  0  0  0
   -0.7884   -4.6215    0.0000 C   0  0  0  0  0  0  0  0  0  0  0  0
   -2.1011   -3.8951    0.0000 O   0  0  0  0  0  0  0  0  0  0  0  0
    0.4968   -3.8479    0.0000 O   0  0  0  0  0  0  0  0  0  0  0  0
    3.1762   -8.2999    0.0000 C   0  0  0  0  0  0  0  0  0  0  0  0
    4.4887   -9.0261    0.0000 C   0  0  0  0  0  0  0  0  0  0  0  0
    3.1489   -6.8001    0.0000 O   0  0  0  0  0  0  0  0  0  0  0  0
    4.5116  -10.5282    0.0000 C   0  0  0  0  0  0  0  0  0  0  0  0
    5.8226  -11.2542    0.0000 C   0  0  0  0  0  0  0  0  0  0  0  0
    7.1095  -10.4806    0.0000 C   0  0  0  0  0  0  0  0  0  0  0  0
    7.0771   -8.9731    0.0000 C   0  0  0  0  0  0  0  0  0  0  0  0
    5.7654   -8.2537    0.0000 C   0  0  0  0  0  0  0  0  0  0  0  0
    8.3598   -8.1950    0.0000 O   0  0  0  0  0  0  0  0  0  0  0  0
    8.3273   -6.6954    0.0000 C   0  0  0  0  0  0  0  0  0  0  0  0
    8.4231  -11.2051    0.0000 O   0  0  0  0  0  0  0  0  0  0  0  0
    8.4522  -12.7047    0.0000 C   0  0  0  0  0  0  0  0  0  0  0  0
    5.8490  -12.7539    0.0000 O   0  0  0  0  0  0  0  0  0  0  0  0
    4.5636  -13.5266    0.0000 C   0  0  0  0  0  0  0  0  0  0  0  0
   -3.3044   -9.1679    0.0000 C   0  0  0  0  0  0  0  0  0  0  0  0
   -4.6169   -8.4417    0.0000 C   0  0  0  0  0  0  0  0  0  0  0  0
   -4.6370   -6.9463    0.0000 C   0  0  0  0  0  0  0  0  0  0  0  0
   -5.9479   -6.2201    0.0000 C   0  0  0  0  0  0  0  0  0  0  0  0
   -7.2350   -6.9938    0.0000 C   0  0  0  0  0  0  0  0  0  0  0  0
   -7.2028   -8.5012    0.0000 C   0  0  0  0  0  0  0  0  0  0  0  0
   -5.8908   -9.2204    0.0000 C   0  0  0  0  0  0  0  0  0  0  0  0
   -3.3498   -6.1761    0.0000 F   0  0  0  0  0  0  0  0  0  0  0  0
   -8.5484   -6.2692    0.0000 Br  0  0  0  0  0  0  0  0  0  0  0  0
 16 17  1  0  0  0  0
  8  9  2  0  0  0  0
 17 18  2  0  0  0  0
 18 12  1  0  0  0  0
  3  5  1  1  0  0  0
 17 19  1  0  0  0  0
  8 10  1  0  0  0  0
 19 20  1  0  0  0  0
  2  3  1  0  0  0  0
 16 21  1  0  0  0  0
  5 11  1  0  0  0  0
 21 22  1  0  0  0  0
  3  6  1  0  0  0  0
 15 23  1  0  0  0  0
 11 12  1  0  0  0  0
 23 24  1  0  0  0  0
  1  2  1  0  0  0  0
  1 25  1  0  0  0  0
 11 13  2  0  0  0  0
 25 26  1  0  0  0  0
  6  7  1  0  0  0  0
 26 27  2  0  0  0  0
 12 14  2  0  0  0  0
 27 28  1  0  0  0  0
  2  4  2  0  0  0  0
 28 29  2  0  0  0  0
 14 15  1  0  0  0  0
 29 30  1  0  0  0  0
  7  8  1  0  0  0  0
 30 31  2  0  0  0  0
 31 26  1  0  0  0  0
 15 16  2  0  0  0  0
 27 32  1  0  0  0  0
 29 33  1  0  0  0  0
M  END
> <Value>
4.29073003902417

> <Relation>
=

> <SourceURI>
mol:CHEMBL476657

$$$$

Generated by Molecular Materials Informatics

 27 27  0  0  0  0  0  0  0  0999 V2000
   -4.5900  -16.6721    0.0000 N   0  0  0  0  0  0  0  0  0  0  0  0
   -3.2777  -17.3983    0.0000 C   0  0  0  0  0  0  0  0  0  0  0  0
   -1.9925  -16.6247    0.0000 C   0  0  0  0  0  0  0  0  0  0  0  0
   -3.2503  -18.8981    0.0000 O   0  0  0  0  0  0  0  0  0  0  0  0
   -0.6798  -17.3512    0.0000 N   0  0  0  0  0  0  0  0  0  0  0  0
   -2.0196  -15.1251    0.0000 C   0  0  0  0  0  0  0  0  0  0  0  0
   -3.3321  -14.3988    0.0000 C   0  0  0  0  0  0  0  0  0  0  0  0
   -3.3595  -12.8992    0.0000 C   0  0  0  0  0  0  0  0  0  0  0  0
   -4.6719  -12.1727    0.0000 O   0  0  0  0  0  0  0  0  0  0  0  0
   -2.0743  -12.1256    0.0000 O   0  0  0  0  0  0  0  0  0  0  0  0
    0.6054  -16.5776    0.0000 C   0  0  0  0  0  0  0  0  0  0  0  0
    1.9177  -17.3038    0.0000 C   0  0  0  0  0  0  0  0  0  0  0  0
    0.5780  -15.0777    0.0000 O   0  0  0  0  0  0  0  0  0  0  0  0
    1.9406  -18.8057    0.0000 C   0  0  0  0  0  0  0  0  0  0  0  0
    3.2515  -19.5317    0.0000 C   0  0  0  0  0  0  0  0  0  0  0  0
    4.5385  -18.7581    0.0000 C   0  0  0  0  0  0  0  0  0  0  0  0
    4.5064  -17.2507    0.0000 C   0  0  0  0  0  0  0  0  0  0  0  0
    3.1946  -16.5312    0.0000 C   0  0  0  0  0  0  0  0  0  0  0  0
    5.7887  -16.4727    0.0000 O   0  0  0  0  0  0  0  0  0  0  0  0
    5.7561  -14.9731    0.0000 C   0  0  0  0  0  0  0  0  0  0  0  0
    5.8519  -19.4828    0.0000 O   0  0  0  0  0  0  0  0  0  0  0  0
    5.8812  -20.9824    0.0000 C   0  0  0  0  0  0  0  0  0  0  0  0
    3.2780  -21.0314    0.0000 O   0  0  0  0  0  0  0  0  0  0  0  0
    1.9924  -21.8043    0.0000 C   0  0  0  0  0  0  0  0  0  0  0  0
   -5.8753  -17.4456    0.0000 C   0  0  0  0  0  0  0  0  0  0  0  0
   -7.1876  -16.7194    0.0000 C   0  0  0  0  0  0  0  0  0  0  0  0
   -8.4728  -17.4927    0.0000 Cl  0  0  0  0  0  0  0  0  0  0  0  0
 12 14  2  0  0  0  0
  2  4  2  0  0  0  0
 14 15  1  0  0  0  0
  7  8  1  0  0  0  0
 15 16  2  0  0  0  0
 16 17  1  0  0  0  0
  8  9  2  0  0  0  0
 17 18  2  0  0  0  0
 18 12  1  0  0  0  0
  3  5  1  1  0  0  0
 17 19  1  0  0  0  0
  8 10  1  0  0  0  0
 19 20  1  0  0  0  0
  2  3  1  0  0  0  0
 16 21  1  0  0  0  0
  5 11  1  0  0  0  0
 21 22  1  0  0  0  0
  3  6  1  0  0  0  0
 15 23  1  0  0  0  0
 11 12  1  0  0  0  0
 23 24  1  0  0  0  0
  1  2  1  0  0  0  0
  1 25  1  0  0  0  0
 11 13  2  0  0  0  0
 25 26  1  0  0  0  0
  6  7  1  0  0  0  0
 26 27  1  0  0  0  0
M  END
> <Value>
3.094150173357681

> <Relation>
=

> <SourceURI>
mol:CHEMBL476868

$$$$

Generated by Molecular Materials Informatics

 25 26  0  0  0  0  0  0  0  0999 V2000
    2.1229  -13.6210    0.0000 C   0  0  0  0  0  0  0  0  0  0  0  0
    3.4218  -12.8711    0.0000 C   0  0  0  0  0  0  0  0  0  0  0  0
    0.8239  -12.8711    0.0000 N   0  0  0  0  0  0  0  0  0  0  0  0
    2.1229  -15.1210    0.0000 O   0  0  0  0  0  0  0  0  0  0  0  0
    4.7209  -13.6210    0.0000 C   0  0  0  0  0  0  0  0  0  0  0  0
    3.4218  -11.3711    0.0000 C   0  0  0  0  0  0  0  0  0  0  0  0
    4.7209  -10.6211    0.0000 C   0  0  0  0  0  0  0  0  0  0  0  0
    4.7209  -15.1210    0.0000 O   0  0  0  0  0  0  0  0  0  0  0  0
    6.0199  -12.8711    0.0000 N   0  0  0  0  0  0  0  0  0  0  0  0
    7.3190  -13.6210    0.0000 O   0  0  0  0  0  0  0  0  0  0  0  0
    6.0192  -11.3762    0.0000 C   0  0  0  0  0  0  0  0  0  0  0  0
    7.3173  -10.6275    0.0000 C   0  0  0  0  0  0  0  0  0  0  0  0
    7.3182   -9.1259    0.0000 C   0  0  0  0  0  0  0  0  0  0  0  0
    6.0101   -8.3763    0.0000 C   0  0  0  0  0  0  0  0  0  0  0  0
    4.7172   -9.1292    0.0000 C   0  0  0  0  0  0  0  0  0  0  0  0
   -0.4752  -13.6210    0.0000 C   0  0  0  0  0  0  0  0  0  0  0  0
   -1.7740  -12.8711    0.0000 C   0  0  0  0  0  0  0  0  0  0  0  0
   -3.0731  -13.6210    0.0000 C   0  0  0  0  0  0  0  0  0  0  0  0
   -4.3721  -12.8711    0.0000 C   0  0  0  0  0  0  0  0  0  0  0  0
   -5.6712  -13.6210    0.0000 C   0  0  0  0  0  0  0  0  0  0  0  0
   -6.9686  -12.8647    0.0000 C   0  0  0  0  0  0  0  0  0  0  0  0
   -8.2668  -13.6134    0.0000 C   0  0  0  0  0  0  0  0  0  0  0  0
   -8.2677  -15.1150    0.0000 C   0  0  0  0  0  0  0  0  0  0  0  0
   -6.9595  -15.8646    0.0000 C   0  0  0  0  0  0  0  0  0  0  0  0
   -5.6666  -15.1117    0.0000 C   0  0  0  0  0  0  0  0  0  0  0  0
 12 13  2  0  0  0  0
  6  7  1  0  0  0  0
 13 14  1  0  0  0  0
  1  4  2  0  0  0  0
 14 15  2  0  0  0  0
 15  7  1  0  0  0  0
  5  8  2  0  0  0  0
  3 16  1  0  0  0  0
 16 17  1  0  0  0  0
  5  9  1  0  0  0  0
 17 18  1  0  0  0  0
  2  5  1  0  0  0  0
 18 19  1  0  0  0  0
  9 10  1  0  0  0  0
 19 20  1  0  0  0  0
  1  3  1  0  0  0  0
 20 21  2  0  0  0  0
  7 11  2  0  0  0  0
 21 22  1  0  0  0  0
  2  6  2  0  0  0  0
 22 23  2  0  0  0  0
 11 12  1  0  0  0  0
 23 24  1  0  0  0  0
  1  2  1  0  0  0  0
 24 25  2  0  0  0  0
 25 20  1  0  0  0  0
M  END
> <Value>
5.489723155582645

> <Relation>
=

> <SourceURI>
mol:CHEMBL375521

$$$$

Generated by Molecular Materials Informatics

 23 24  0  0  0  0  0  0  0  0999 V2000
   -1.1931  -20.4508    0.0000 C   0  0  0  0  0  0  0  0  0  0  0  0
    0.1058  -19.7009    0.0000 C   0  0  0  0  0  0  0  0  0  0  0  0
   -2.4922  -19.7009    0.0000 N   0  0  0  0  0  0  0  0  0  0  0  0
   -1.1931  -21.9508    0.0000 O   0  0  0  0  0  0  0  0  0  0  0  0
    1.4048  -20.4508    0.0000 C   0  0  0  0  0  0  0  0  0  0  0  0
    0.1058  -18.2009    0.0000 C   0  0  0  0  0  0  0  0  0  0  0  0
    1.4048  -17.4509    0.0000 C   0  0  0  0  0  0  0  0  0  0  0  0
    1.4048  -21.9508    0.0000 O   0  0  0  0  0  0  0  0  0  0  0  0
    2.7039  -19.7009    0.0000 N   0  0  0  0  0  0  0  0  0  0  0  0
    4.0029  -20.4508    0.0000 O   0  0  0  0  0  0  0  0  0  0  0  0
    2.7031  -18.2060    0.0000 C   0  0  0  0  0  0  0  0  0  0  0  0
    4.0013  -17.4573    0.0000 C   0  0  0  0  0  0  0  0  0  0  0  0
    4.0022  -15.9557    0.0000 C   0  0  0  0  0  0  0  0  0  0  0  0
    2.6940  -15.2061    0.0000 C   0  0  0  0  0  0  0  0  0  0  0  0
    1.4012  -15.9590    0.0000 C   0  0  0  0  0  0  0  0  0  0  0  0
   -3.7912  -20.4508    0.0000 C   0  0  0  0  0  0  0  0  0  0  0  0
   -5.0901  -19.7009    0.0000 C   0  0  0  0  0  0  0  0  0  0  0  0
   -5.0808  -18.1991    0.0000 C   0  0  0  0  0  0  0  0  0  0  0  0
   -6.3782  -17.4491    0.0000 C   0  0  0  0  0  0  0  0  0  0  0  0
   -7.6789  -18.1993    0.0000 C   0  0  0  0  0  0  0  0  0  0  0  0
   -7.6742  -19.7071    0.0000 C   0  0  0  0  0  0  0  0  0  0  0  0
   -6.3757  -20.4499    0.0000 C   0  0  0  0  0  0  0  0  0  0  0  0
   -3.7792  -17.4535    0.0000 C   0  0  0  0  0  0  0  0  0  0  0  0
 11 12  1  0  0  0  0
  1  2  1  0  0  0  0
 12 13  2  0  0  0  0
  6  7  1  0  0  0  0
 13 14  1  0  0  0  0
  1  4  2  0  0  0  0
 14 15  2  0  0  0  0
 15  7  1  0  0  0  0
  5  8  2  0  0  0  0
  3 16  1  0  0  0  0
 16 17  1  0  0  0  0
  5  9  1  0  0  0  0
 17 18  2  0  0  0  0
  2  5  1  0  0  0  0
 18 19  1  0  0  0  0
  9 10  1  0  0  0  0
 19 20  2  0  0  0  0
  1  3  1  0  0  0  0
 20 21  1  0  0  0  0
  7 11  2  0  0  0  0
 21 22  2  0  0  0  0
 22 17  1  0  0  0  0
  2  6  1  0  0  0  0
 18 23  1  0  0  0  0
M  END
> <Value>
5.882066164960358

> <Relation>
=

> <SourceURI>
mol:CHEMBL219611

$$$$

Generated by Molecular Materials Informatics

 23 24  0  0  0  0  0  0  0  0999 V2000
   15.5617  -18.9000    0.0000 C   0  0  0  0  0  0  0  0  0  0  0  0
   16.8608  -18.1500    0.0000 C   0  0  0  0  0  0  0  0  0  0  0  0
   14.2628  -18.1500    0.0000 N   0  0  0  0  0  0  0  0  0  0  0  0
   15.5617  -20.4000    0.0000 O   0  0  0  0  0  0  0  0  0  0  0  0
   18.1599  -18.9000    0.0000 C   0  0  0  0  0  0  0  0  0  0  0  0
   16.8608  -16.6500    0.0000 C   0  0  0  0  0  0  0  0  0  0  0  0
   18.1599  -15.9000    0.0000 C   0  0  0  0  0  0  0  0  0  0  0  0
   18.1599  -14.4000    0.0000 C   0  0  0  0  0  0  0  0  0  0  0  0
   19.4588  -16.6500    0.0000 C   0  0  0  0  0  0  0  0  0  0  0  0
   18.1599  -20.4000    0.0000 O   0  0  0  0  0  0  0  0  0  0  0  0
   19.4588  -18.1500    0.0000 N   0  0  0  0  0  0  0  0  0  0  0  0
   20.7579  -18.9000    0.0000 O   0  0  0  0  0  0  0  0  0  0  0  0
   12.9637  -18.9000    0.0000 C   0  0  0  0  0  0  0  0  0  0  0  0
   11.6646  -18.1500    0.0000 C   0  0  0  0  0  0  0  0  0  0  0  0
   11.6741  -16.6480    0.0000 C   0  0  0  0  0  0  0  0  0  0  0  0
   10.3766  -15.8982    0.0000 C   0  0  0  0  0  0  0  0  0  0  0  0
    9.0757  -16.6482    0.0000 C   0  0  0  0  0  0  0  0  0  0  0  0
   10.3792  -18.8991    0.0000 C   0  0  0  0  0  0  0  0  0  0  0  0
    9.0826  -18.1562    0.0000 C   0  0  0  0  0  0  0  0  0  0  0  0
    7.7948  -18.9075    0.0000 C   0  0  0  0  0  0  0  0  0  0  0  0
    7.8013  -20.4015    0.0000 C   0  0  0  0  0  0  0  0  0  0  0  0
    9.1064  -21.1408    0.0000 C   0  0  0  0  0  0  0  0  0  0  0  0
   10.3890  -20.3853    0.0000 C   0  0  0  0  0  0  0  0  0  0  0  0
 11 12  1  0  0  0  0
  1  2  1  0  0  0  0
  3 13  1  0  0  0  0
  6  7  1  0  0  0  0
 13 14  1  0  0  0  0
  1  4  2  0  0  0  0
 14 15  2  0  0  0  0
  7  8  1  0  0  0  0
 15 16  1  0  0  0  0
 16 17  2  0  0  0  0
 17 19  1  0  0  0  0
 18 14  1  0  0  0  0
  7  9  1  0  0  0  0
  2  5  1  0  0  0  0
 18 19  1  0  0  0  0
  5 10  2  0  0  0  0
 19 20  2  0  0  0  0
  1  3  1  0  0  0  0
 20 21  1  0  0  0  0
  5 11  1  0  0  0  0
 21 22  2  0  0  0  0
  2  6  1  0  0  0  0
 22 23  1  0  0  0  0
 23 18  2  0  0  0  0
M  END
> <Value>
5.066512712151295

> <Relation>
=

> <SourceURI>
mol:CHEMBL374479

$$$$

Generated by Molecular Materials Informatics

 30 32  0  0  0  0  0  0  0  0999 V2000
   10.6478  -14.7884    0.0000 C   0  0  0  0  0  0  0  0  0  0  0  0
   11.9469  -14.0384    0.0000 C   0  0  0  0  0  0  0  0  0  0  0  0
    9.3489  -14.0384    0.0000 N   0  0  0  0  0  0  0  0  0  0  0  0
   10.6478  -16.2884    0.0000 O   0  0  0  0  0  0  0  0  0  0  0  0
   13.2459  -14.7884    0.0000 C   0  0  0  0  0  0  0  0  0  0  0  0
   11.9469  -12.5384    0.0000 C   0  0  0  0  0  0  0  0  0  0  0  0
   13.2459  -11.7884    0.0000 C   0  0  0  0  0  0  0  0  0  0  0  0
   13.2459  -16.2884    0.0000 O   0  0  0  0  0  0  0  0  0  0  0  0
   14.5448  -14.0384    0.0000 N   0  0  0  0  0  0  0  0  0  0  0  0
   15.8439  -14.7884    0.0000 O   0  0  0  0  0  0  0  0  0  0  0  0
    8.0498  -14.7884    0.0000 C   0  0  0  0  0  0  0  0  0  0  0  0
   14.5443  -12.5435    0.0000 C   0  0  0  0  0  0  0  0  0  0  0  0
   15.8425  -11.7948    0.0000 C   0  0  0  0  0  0  0  0  0  0  0  0
   15.8432  -10.2931    0.0000 C   0  0  0  0  0  0  0  0  0  0  0  0
   14.5350   -9.5435    0.0000 C   0  0  0  0  0  0  0  0  0  0  0  0
   13.2423  -10.2964    0.0000 C   0  0  0  0  0  0  0  0  0  0  0  0
   17.1412  -12.5453    0.0000 O   0  0  0  0  0  0  0  0  0  0  0  0
   18.4405  -11.7960    0.0000 C   0  0  0  0  0  0  0  0  0  0  0  0
   19.7359  -12.5562    0.0000 C   0  0  0  0  0  0  0  0  0  0  0  0
   21.0344  -11.8080    0.0000 C   0  0  0  0  0  0  0  0  0  0  0  0
   21.0361  -10.3064    0.0000 C   0  0  0  0  0  0  0  0  0  0  0  0
   19.7283   -9.5561    0.0000 C   0  0  0  0  0  0  0  0  0  0  0  0
   18.4350  -10.3086    0.0000 C   0  0  0  0  0  0  0  0  0  0  0  0
    6.7507  -14.0384    0.0000 C   0  0  0  0  0  0  0  0  0  0  0  0
    6.7602  -12.5366    0.0000 C   0  0  0  0  0  0  0  0  0  0  0  0
    5.4627  -11.7866    0.0000 C   0  0  0  0  0  0  0  0  0  0  0  0
    4.1618  -12.5368    0.0000 C   0  0  0  0  0  0  0  0  0  0  0  0
    4.1667  -14.0446    0.0000 C   0  0  0  0  0  0  0  0  0  0  0  0
    5.4653  -14.7875    0.0000 C   0  0  0  0  0  0  0  0  0  0  0  0
    2.8618  -11.7884    0.0000 Cl  0  0  0  0  0  0  0  0  0  0  0  0
  5  8  2  0  0  0  0
 15 16  2  0  0  0  0
 16  7  1  0  0  0  0
 13 17  1  0  0  0  0
  5  9  1  0  0  0  0
 17 18  1  0  0  0  0
  2  5  1  0  0  0  0
 18 19  2  0  0  0  0
  9 10  1  0  0  0  0
 19 20  1  0  0  0  0
  1  3  1  0  0  0  0
 20 21  2  0  0  0  0
  3 11  1  0  0  0  0
 21 22  1  0  0  0  0
  2  6  1  0  0  0  0
 22 23  2  0  0  0  0
 23 18  1  0  0  0  0
  7 12  2  0  0  0  0
 11 24  1  0  0  0  0
  1  2  1  0  0  0  0
 24 25  2  0  0  0  0
 12 13  1  0  0  0  0
 25 26  1  0  0  0  0
  6  7  1  0  0  0  0
 26 27  2  0  0  0  0
 13 14  2  0  0  0  0
 27 28  1  0  0  0  0
  1  4  2  0  0  0  0
 28 29  2  0  0  0  0
 29 24  1  0  0  0  0
 14 15  1  0  0  0  0
 27 30  1  0  0  0  0
M  END
> <Value>
5.597394758080085

> <Relation>
=

> <SourceURI>
mol:CHEMBL220389

$$$$

Generated by Molecular Materials Informatics

 23 25  0  0  0  0  0  0  0  0999 V2000
   -6.7107   -9.6977    0.0000 C   0  0  0  0  0  0  0  0  0  0  0  0
   -6.7127  -11.2020    0.0000 C   0  0  0  0  0  0  0  0  0  0  0  0
   -5.4130  -11.9525    0.0000 C   0  0  0  0  0  0  0  0  0  0  0  0
   -4.1106  -11.2011    0.0000 C   0  0  0  0  0  0  0  0  0  0  0  0
   -4.1157   -9.6911    0.0000 C   0  0  0  0  0  0  0  0  0  0  0  0
   -5.4163   -8.9472    0.0000 C   0  0  0  0  0  0  0  0  0  0  0  0
   -8.0096   -8.9481    0.0000 F   0  0  0  0  0  0  0  0  0  0  0  0
   -2.8104  -11.9490    0.0000 C   0  0  0  0  0  0  0  0  0  0  0  0
   -1.5126  -11.1969    0.0000 N   0  0  0  0  0  0  0  0  0  0  0  0
   -0.2125  -11.9448    0.0000 C   0  0  0  0  0  0  0  0  0  0  0  0
   -0.2102  -13.4448    0.0000 O   0  0  0  0  0  0  0  0  0  0  0  0
    2.3877  -13.4408    0.0000 O   0  0  0  0  0  0  0  0  0  0  0  0
    4.9834  -11.9366    0.0000 O   0  0  0  0  0  0  0  0  0  0  0  0
    1.0835  -11.1898    0.0000 C   0  0  0  0  0  0  0  0  0  0  0  0
    2.3853  -11.9408    0.0000 C   0  0  0  0  0  0  0  0  0  0  0  0
    3.6795  -11.1930    0.0000 N   0  0  0  0  0  0  0  0  0  0  0  0
    1.0758   -9.6909    0.0000 C   0  0  0  0  0  0  0  0  0  0  0  0
    2.3815   -8.9401    0.0000 C   0  0  0  0  0  0  0  0  0  0  0  0
    3.6792   -9.6958    0.0000 C   0  0  0  0  0  0  0  0  0  0  0  0
    4.9754   -8.9539    0.0000 C   0  0  0  0  0  0  0  0  0  0  0  0
    4.9852   -7.4532    0.0000 C   0  0  0  0  0  0  0  0  0  0  0  0
    3.6874   -6.6974    0.0000 C   0  0  0  0  0  0  0  0  0  0  0  0
    2.3799   -7.4423    0.0000 C   0  0  0  0  0  0  0  0  0  0  0  0
 10 11  2  0  0  0  0
  5  6  2  0  0  0  0
 15 12  2  0  0  0  0
  6  1  1  0  0  0  0
 16 13  1  0  0  0  0
 14 15  1  0  0  0  0
  1  2  2  0  0  0  0
  1  7  1  0  0  0  0
  3  4  2  0  0  0  0
  4  8  1  0  0  0  0
 14 17  2  0  0  0  0
 15 16  1  0  0  0  0
 16 19  1  0  0  0  0
 18 17  1  0  0  0  0
 18 19  1  0  0  0  0
  8  9  1  0  0  0  0
  4  5  1  0  0  0  0
  9 10  1  0  0  0  0
 10 14  1  0  0  0  0
  2  3  1  0  0  0  0
 18 23  2  0  0  0  0
 19 20  2  0  0  0  0
 20 21  1  0  0  0  0
 21 22  2  0  0  0  0
 22 23  1  0  0  0  0
M  END
> <Value>
5.0

> <Relation>
<

> <SourceURI>
mol:CHEMBL220363

$$$$

Generated by Molecular Materials Informatics

 25 27  0  0  0  0  0  0  0  0999 V2000
   13.8313  -14.0586    0.0000 C   0  0  0  0  0  0  0  0  0  0  0  0
   15.1304  -13.3086    0.0000 C   0  0  0  0  0  0  0  0  0  0  0  0
   12.5322  -13.3086    0.0000 N   0  0  0  0  0  0  0  0  0  0  0  0
   13.8313  -15.5586    0.0000 O   0  0  0  0  0  0  0  0  0  0  0  0
   16.4293  -14.0586    0.0000 C   0  0  0  0  0  0  0  0  0  0  0  0
   15.1304  -11.8086    0.0000 C   0  0  0  0  0  0  0  0  0  0  0  0
   16.4293  -11.0586    0.0000 C   0  0  0  0  0  0  0  0  0  0  0  0
   16.4293  -15.5586    0.0000 O   0  0  0  0  0  0  0  0  0  0  0  0
   19.0274  -14.0586    0.0000 O   0  0  0  0  0  0  0  0  0  0  0  0
   17.7278  -11.8137    0.0000 C   0  0  0  0  0  0  0  0  0  0  0  0
   19.0258  -11.0650    0.0000 C   0  0  0  0  0  0  0  0  0  0  0  0
   19.0267   -9.5633    0.0000 C   0  0  0  0  0  0  0  0  0  0  0  0
   17.7185   -8.8137    0.0000 C   0  0  0  0  0  0  0  0  0  0  0  0
   16.4258   -9.5666    0.0000 C   0  0  0  0  0  0  0  0  0  0  0  0
   11.2333  -14.0586    0.0000 C   0  0  0  0  0  0  0  0  0  0  0  0
    9.9342  -13.3086    0.0000 C   0  0  0  0  0  0  0  0  0  0  0  0
    8.6351  -14.0586    0.0000 C   0  0  0  0  0  0  0  0  0  0  0  0
    7.3360  -13.3086    0.0000 C   0  0  0  0  0  0  0  0  0  0  0  0
    6.0371  -14.0586    0.0000 C   0  0  0  0  0  0  0  0  0  0  0  0
    4.7395  -13.3022    0.0000 C   0  0  0  0  0  0  0  0  0  0  0  0
    3.4413  -14.0509    0.0000 C   0  0  0  0  0  0  0  0  0  0  0  0
    3.4406  -15.5526    0.0000 C   0  0  0  0  0  0  0  0  0  0  0  0
    4.7487  -16.3022    0.0000 C   0  0  0  0  0  0  0  0  0  0  0  0
    6.0415  -15.5493    0.0000 C   0  0  0  0  0  0  0  0  0  0  0  0
   17.7251  -13.3137    0.0000 N   0  0  0  0  0  0  0  0  0  0  0  0
  1  2  1  0  0  0  0
 12 13  1  0  0  0  0
  6  7  1  0  0  0  0
 13 14  2  0  0  0  0
 14  7  1  0  0  0  0
  1  4  2  0  0  0  0
  3 15  1  0  0  0  0
  5  8  2  0  0  0  0
 15 16  1  0  0  0  0
  5 25  1  0  0  0  0
 16 17  1  0  0  0  0
 17 18  1  0  0  0  0
 25  9  1  0  0  0  0
 18 19  1  0  0  0  0
  2  5  1  0  0  0  0
 19 20  2  0  0  0  0
  7 10  2  0  0  0  0
 20 21  1  0  0  0  0
  1  3  1  0  0  0  0
 21 22  2  0  0  0  0
 10 11  1  0  0  0  0
 22 23  1  0  0  0  0
  2  6  2  0  0  0  0
 23 24  2  0  0  0  0
 24 19  1  0  0  0  0
 11 12  2  0  0  0  0
 10 25  1  0  0  0  0
M  END
> <Value>
5.0

> <Relation>
<

> <SourceURI>
mol:CHEMBL219938

$$$$

Generated by Molecular Materials Informatics

 23 24  0  0  0  0  0  0  0  0999 V2000
    0.1137   -5.1246    0.0000 C   0  0  0  0  0  0  0  0  0  0  0  0
    0.1117   -6.6290    0.0000 C   0  0  0  0  0  0  0  0  0  0  0  0
    1.4113   -7.3797    0.0000 C   0  0  0  0  0  0  0  0  0  0  0  0
    2.7139   -6.6281    0.0000 C   0  0  0  0  0  0  0  0  0  0  0  0
    2.7088   -5.1181    0.0000 C   0  0  0  0  0  0  0  0  0  0  0  0
    1.4080   -4.3742    0.0000 C   0  0  0  0  0  0  0  0  0  0  0  0
   -1.1854   -4.3750    0.0000 F   0  0  0  0  0  0  0  0  0  0  0  0
    4.0142   -7.3761    0.0000 C   0  0  0  0  0  0  0  0  0  0  0  0
    5.3120   -6.6241    0.0000 N   0  0  0  0  0  0  0  0  0  0  0  0
    6.6122   -7.3721    0.0000 C   0  0  0  0  0  0  0  0  0  0  0  0
    7.9100   -6.6199    0.0000 C   0  0  0  0  0  0  0  0  0  0  0  0
    6.6146   -8.8721    0.0000 O   0  0  0  0  0  0  0  0  0  0  0  0
    9.2102   -7.3679    0.0000 C   0  0  0  0  0  0  0  0  0  0  0  0
    7.9077   -5.1199    0.0000 C   0  0  0  0  0  0  0  0  0  0  0  0
    9.2126   -8.8679    0.0000 O   0  0  0  0  0  0  0  0  0  0  0  0
   10.5082   -6.6159    0.0000 N   0  0  0  0  0  0  0  0  0  0  0  0
   11.8084   -7.3639    0.0000 O   0  0  0  0  0  0  0  0  0  0  0  0
    9.2055   -4.3679    0.0000 C   0  0  0  0  0  0  0  0  0  0  0  0
   10.5051   -5.1193    0.0000 C   0  0  0  0  0  0  0  0  0  0  0  0
   11.8020   -4.3686    0.0000 C   0  0  0  0  0  0  0  0  0  0  0  0
   11.8006   -2.8670    0.0000 C   0  0  0  0  0  0  0  0  0  0  0  0
   10.4913   -2.1193    0.0000 C   0  0  0  0  0  0  0  0  0  0  0  0
    9.1997   -2.8744    0.0000 C   0  0  0  0  0  0  0  0  0  0  0  0
  5  6  2  0  0  0  0
 10 12  2  0  0  0  0
  6  1  1  0  0  0  0
 11 13  1  0  0  0  0
  1  2  2  0  0  0  0
 11 14  2  0  0  0  0
  1  7  1  0  0  0  0
 13 15  2  0  0  0  0
  3  4  2  0  0  0  0
 13 16  1  0  0  0  0
  4  8  1  0  0  0  0
 16 17  1  0  0  0  0
 14 18  1  0  0  0  0
  8  9  1  0  0  0  0
 18 19  2  0  0  0  0
  4  5  1  0  0  0  0
 19 20  1  0  0  0  0
  9 10  1  0  0  0  0
 20 21  2  0  0  0  0
  2  3  1  0  0  0  0
 21 22  1  0  0  0  0
 10 11  1  0  0  0  0
 22 23  2  0  0  0  0
 23 18  1  0  0  0  0
M  END
> <Value>
5.862645888629267

> <Error>
0.0

> <Relation>
=

> <SourceURI>
mol:CHEMBL219777

$$$$

Generated by Molecular Materials Informatics

 23 24  0  0  0  0  0  0  0  0999 V2000
    7.8804   -5.1438    0.0000 C   0  0  0  0  0  0  0  0  0  0  0  0
    7.8783   -6.6480    0.0000 C   0  0  0  0  0  0  0  0  0  0  0  0
    9.1781   -7.3988    0.0000 C   0  0  0  0  0  0  0  0  0  0  0  0
   10.4806   -6.6473    0.0000 C   0  0  0  0  0  0  0  0  0  0  0  0
   10.4754   -5.1371    0.0000 C   0  0  0  0  0  0  0  0  0  0  0  0
    9.1748   -4.3933    0.0000 C   0  0  0  0  0  0  0  0  0  0  0  0
    6.5812   -4.3940    0.0000 F   0  0  0  0  0  0  0  0  0  0  0  0
   11.7808   -7.3951    0.0000 C   0  0  0  0  0  0  0  0  0  0  0  0
   13.0786   -6.6431    0.0000 N   0  0  0  0  0  0  0  0  0  0  0  0
   14.3790   -7.3911    0.0000 C   0  0  0  0  0  0  0  0  0  0  0  0
   15.6768   -6.6391    0.0000 C   0  0  0  0  0  0  0  0  0  0  0  0
   14.3814   -8.8911    0.0000 O   0  0  0  0  0  0  0  0  0  0  0  0
   16.9770   -7.3869    0.0000 C   0  0  0  0  0  0  0  0  0  0  0  0
   15.6745   -5.1391    0.0000 C   0  0  0  0  0  0  0  0  0  0  0  0
   16.9794   -8.8869    0.0000 O   0  0  0  0  0  0  0  0  0  0  0  0
   18.2749   -6.6349    0.0000 N   0  0  0  0  0  0  0  0  0  0  0  0
   19.5750   -7.3829    0.0000 O   0  0  0  0  0  0  0  0  0  0  0  0
   14.3743   -4.3911    0.0000 C   0  0  0  0  0  0  0  0  0  0  0  0
   14.3757   -2.8940    0.0000 C   0  0  0  0  0  0  0  0  0  0  0  0
   13.0770   -2.1462    0.0000 C   0  0  0  0  0  0  0  0  0  0  0  0
   11.7774   -2.8982    0.0000 C   0  0  0  0  0  0  0  0  0  0  0  0
   11.7845   -4.4060    0.0000 C   0  0  0  0  0  0  0  0  0  0  0  0
   13.0843   -5.1471    0.0000 C   0  0  0  0  0  0  0  0  0  0  0  0
  5  6  2  0  0  0  0
 10 12  2  0  0  0  0
  6  1  1  0  0  0  0
 11 13  1  0  0  0  0
  1  2  2  0  0  0  0
 11 14  2  0  0  0  0
  1  7  1  0  0  0  0
 13 15  2  0  0  0  0
  3  4  2  0  0  0  0
 13 16  1  0  0  0  0
  4  8  1  0  0  0  0
 16 17  1  0  0  0  0
 14 18  1  0  0  0  0
  8  9  1  0  0  0  0
 18 19  2  0  0  0  0
  4  5  1  0  0  0  0
 19 20  1  0  0  0  0
  9 10  1  0  0  0  0
 20 21  2  0  0  0  0
  2  3  1  0  0  0  0
 21 22  1  0  0  0  0
 10 11  1  0  0  0  0
 22 23  2  0  0  0  0
 23 18  1  0  0  0  0
M  END
> <Value>
5.0

> <Relation>
<

> <SourceURI>
mol:CHEMBL376895

$$$$

Generated by Molecular Materials Informatics

 23 24  0  0  0  0  0  0  0  0999 V2000
   -6.9363    1.5419    0.0000 C   0  0  0  0  0  0  0  0  0  0  0  0
   -6.9383    0.0377    0.0000 C   0  0  0  0  0  0  0  0  0  0  0  0
   -5.6387   -0.7130    0.0000 C   0  0  0  0  0  0  0  0  0  0  0  0
   -4.3361    0.0385    0.0000 C   0  0  0  0  0  0  0  0  0  0  0  0
   -4.3412    1.5486    0.0000 C   0  0  0  0  0  0  0  0  0  0  0  0
   -5.6420    2.2925    0.0000 C   0  0  0  0  0  0  0  0  0  0  0  0
   -8.2354    2.2917    0.0000 F   0  0  0  0  0  0  0  0  0  0  0  0
   -3.0358   -0.7094    0.0000 C   0  0  0  0  0  0  0  0  0  0  0  0
   -1.7380    0.0426    0.0000 N   0  0  0  0  0  0  0  0  0  0  0  0
   -0.4378   -0.7054    0.0000 C   0  0  0  0  0  0  0  0  0  0  0  0
    0.8600    0.0466    0.0000 C   0  0  0  0  0  0  0  0  0  0  0  0
   -0.4354   -2.2054    0.0000 O   0  0  0  0  0  0  0  0  0  0  0  0
    2.1602   -0.7012    0.0000 C   0  0  0  0  0  0  0  0  0  0  0  0
    3.4582    0.0508    0.0000 N   0  0  0  0  0  0  0  0  0  0  0  0
    2.1626   -2.2012    0.0000 O   0  0  0  0  0  0  0  0  0  0  0  0
    4.7584   -0.6972    0.0000 O   0  0  0  0  0  0  0  0  0  0  0  0
    0.8577    1.5466    0.0000 C   0  0  0  0  0  0  0  0  0  0  0  0
    2.1555    2.2988    0.0000 C   0  0  0  0  0  0  0  0  0  0  0  0
    3.4551    1.5472    0.0000 C   0  0  0  0  0  0  0  0  0  0  0  0
    4.7520    2.2981    0.0000 C   0  0  0  0  0  0  0  0  0  0  0  0
    4.7506    3.7995    0.0000 C   0  0  0  0  0  0  0  0  0  0  0  0
    3.4413    4.5474    0.0000 C   0  0  0  0  0  0  0  0  0  0  0  0
    2.1497    3.7923    0.0000 C   0  0  0  0  0  0  0  0  0  0  0  0
  5  6  2  0  0  0  0
 10 12  2  0  0  0  0
  6  1  1  0  0  0  0
 11 13  1  0  0  0  0
  1  2  2  0  0  0  0
 13 14  1  0  0  0  0
  1  7  1  0  0  0  0
 13 15  2  0  0  0  0
  3  4  2  0  0  0  0
 14 16  1  0  0  0  0
  4  8  1  0  0  0  0
 11 17  1  0  0  0  0
 17 18  1  0  0  0  0
  8  9  1  0  0  0  0
 18 19  2  0  0  0  0
  4  5  1  0  0  0  0
 19 20  1  0  0  0  0
  9 10  1  0  0  0  0
 20 21  2  0  0  0  0
  2  3  1  0  0  0  0
 21 22  1  0  0  0  0
 10 11  1  0  0  0  0
 22 23  2  0  0  0  0
 23 18  1  0  0  0  0
M  END
> <Value>
5.441771578196675

> <Error>
0.0

> <Relation>
=

> <SourceURI>
mol:CHEMBL219618

$$$$

Generated by Molecular Materials Informatics

 27 29  0  0  0  0  0  0  0  0999 V2000
   -4.8215    3.1729    0.0000 N   0  0  0  0  0  0  0  0  0  0  0  0
   -6.3213    3.1949    0.0000 N   0  0  0  0  0  0  0  0  0  0  0  0
   -6.8058    1.7754    0.0000 C   0  0  0  0  0  0  0  0  0  0  0  0
   -5.6053    0.8758    0.0000 S   0  0  0  0  0  0  0  0  0  0  0  0
   -4.3791    1.7398    0.0000 C   0  0  0  0  0  0  0  0  0  0  0  0
   -8.1135    1.0340    0.0000 C   0  0  0  0  0  0  0  0  0  0  0  0
   -9.4082    1.8012    0.0000 C   0  0  0  0  0  0  0  0  0  0  0  0
  -10.7147    1.0611    0.0000 C   0  0  0  0  0  0  0  0  0  0  0  0
  -10.7273   -0.4437    0.0000 C   0  0  0  0  0  0  0  0  0  0  0  0
   -9.4225   -1.2049    0.0000 C   0  0  0  0  0  0  0  0  0  0  0  0
   -8.1211   -0.4606    0.0000 C   0  0  0  0  0  0  0  0  0  0  0  0
   -3.0886    0.9923    0.0000 N   0  0  0  0  0  0  0  0  0  0  0  0
   -1.7886    1.7407    0.0000 C   0  0  0  0  0  0  0  0  0  0  0  0
   -0.4904    0.9893    0.0000 C   0  0  0  0  0  0  0  0  0  0  0  0
   -1.7867    3.2407    0.0000 O   0  0  0  0  0  0  0  0  0  0  0  0
   -0.4924   -0.5107    0.0000 C   0  0  0  0  0  0  0  0  0  0  0  0
    0.8096    1.7376    0.0000 N   0  0  0  0  0  0  0  0  0  0  0  0
    2.1076    0.9860    0.0000 C   0  0  0  0  0  0  0  0  0  0  0  0
    3.4076    1.7343    0.0000 C   0  0  0  0  0  0  0  0  0  0  0  0
    2.1058   -0.5140    0.0000 O   0  0  0  0  0  0  0  0  0  0  0  0
    4.7054    0.9827    0.0000 C   0  0  0  0  0  0  0  0  0  0  0  0
    6.0054    1.7312    0.0000 C   0  0  0  0  0  0  0  0  0  0  0  0
    7.2994    0.9736    0.0000 C   0  0  0  0  0  0  0  0  0  0  0  0
    8.5983    1.7207    0.0000 C   0  0  0  0  0  0  0  0  0  0  0  0
    8.6011    3.2223    0.0000 C   0  0  0  0  0  0  0  0  0  0  0  0
    7.2938    3.9734    0.0000 C   0  0  0  0  0  0  0  0  0  0  0  0
    6.0002    3.2222    0.0000 C   0  0  0  0  0  0  0  0  0  0  0  0
 12 13  1  0  0  0  0
 13 14  1  0  0  0  0
  6  7  2  0  0  0  0
 13 15  2  0  0  0  0
  2  3  2  0  0  0  0
 14 16  1  6  0  0  0
  7  8  1  0  0  0  0
 14 17  1  0  0  0  0
  3  4  1  0  0  0  0
 17 18  1  0  0  0  0
  8  9  2  0  0  0  0
 18 19  1  0  0  0  0
  4  5  1  0  0  0  0
 18 20  2  0  0  0  0
  9 10  1  0  0  0  0
 19 21  2  0  0  0  0
  5  1  2  0  0  0  0
 21 22  1  0  0  0  0
 10 11  2  0  0  0  0
 22 23  2  0  0  0  0
 11  6  1  0  0  0  0
 23 24  1  0  0  0  0
  1  2  1  0  0  0  0
 24 25  2  0  0  0  0
  5 12  1  0  0  0  0
 25 26  1  0  0  0  0
  3  6  1  0  0  0  0
 26 27  2  0  0  0  0
 27 22  1  0  0  0  0
M  END
> <Value>
3.6663512434852987

> <Relation>
=

> <SourceURI>
mol:CHEMBL524197

$$$$

Generated by Molecular Materials Informatics

 31 33  0  0  0  0  0  0  0  0999 V2000
   -2.1039   -9.7121    0.0000 N   0  0  0  0  0  0  0  0  0  0  0  0
   -3.6037   -9.6901    0.0000 N   0  0  0  0  0  0  0  0  0  0  0  0
   -4.0883  -11.1097    0.0000 C   0  0  0  0  0  0  0  0  0  0  0  0
   -2.8877  -12.0092    0.0000 S   0  0  0  0  0  0  0  0  0  0  0  0
   -1.6615  -11.1453    0.0000 C   0  0  0  0  0  0  0  0  0  0  0  0
   -5.3957  -11.8510    0.0000 C   0  0  0  0  0  0  0  0  0  0  0  0
   -6.6907  -11.0839    0.0000 C   0  0  0  0  0  0  0  0  0  0  0  0
   -7.9972  -11.8241    0.0000 C   0  0  0  0  0  0  0  0  0  0  0  0
   -8.0099  -13.3286    0.0000 C   0  0  0  0  0  0  0  0  0  0  0  0
   -6.7048  -14.0901    0.0000 C   0  0  0  0  0  0  0  0  0  0  0  0
   -5.4037  -13.3457    0.0000 C   0  0  0  0  0  0  0  0  0  0  0  0
   -0.3708  -11.8926    0.0000 N   0  0  0  0  0  0  0  0  0  0  0  0
    0.9291  -11.1442    0.0000 C   0  0  0  0  0  0  0  0  0  0  0  0
    2.2272  -11.8959    0.0000 C   0  0  0  0  0  0  0  0  0  0  0  0
    0.9311   -9.6444    0.0000 O   0  0  0  0  0  0  0  0  0  0  0  0
    2.2254  -13.3959    0.0000 C   0  0  0  0  0  0  0  0  0  0  0  0
    3.5273  -11.1475    0.0000 N   0  0  0  0  0  0  0  0  0  0  0  0
    4.8251  -11.8992    0.0000 C   0  0  0  0  0  0  0  0  0  0  0  0
    6.1251  -11.1508    0.0000 C   0  0  0  0  0  0  0  0  0  0  0  0
    4.8233  -13.3990    0.0000 O   0  0  0  0  0  0  0  0  0  0  0  0
    7.4233  -11.9023    0.0000 C   0  0  0  0  0  0  0  0  0  0  0  0
    8.7233  -11.1539    0.0000 C   0  0  0  0  0  0  0  0  0  0  0  0
   10.0171  -11.9115    0.0000 C   0  0  0  0  0  0  0  0  0  0  0  0
   11.3161  -11.1642    0.0000 C   0  0  0  0  0  0  0  0  0  0  0  0
   11.3188   -9.6628    0.0000 C   0  0  0  0  0  0  0  0  0  0  0  0
   10.0115   -8.9115    0.0000 C   0  0  0  0  0  0  0  0  0  0  0  0
    8.7178   -9.6630    0.0000 C   0  0  0  0  0  0  0  0  0  0  0  0
   -9.3136  -14.0701    0.0000 O   0  0  0  0  0  0  0  0  0  0  0  0
   -9.3234  -15.5701    0.0000 C   0  0  0  0  0  0  0  0  0  0  0  0
   12.6177   -8.9126    0.0000 O   0  0  0  0  0  0  0  0  0  0  0  0
   13.9168   -9.6626    0.0000 C   0  0  0  0  0  0  0  0  0  0  0  0
 13 15  2  0  0  0  0
  2  3  2  0  0  0  0
 14 16  1  6  0  0  0
  7  8  1  0  0  0  0
 14 17  1  0  0  0  0
  3  4  1  0  0  0  0
 17 18  1  0  0  0  0
  8  9  2  0  0  0  0
 18 19  1  0  0  0  0
  4  5  1  0  0  0  0
 18 20  2  0  0  0  0
  9 10  1  0  0  0  0
 19 21  2  0  0  0  0
  5  1  2  0  0  0  0
 21 22  1  0  0  0  0
 10 11  2  0  0  0  0
 22 23  2  0  0  0  0
 11  6  1  0  0  0  0
 23 24  1  0  0  0  0
  1  2  1  0  0  0  0
 24 25  2  0  0  0  0
  5 12  1  0  0  0  0
 25 26  1  0  0  0  0
  3  6  1  0  0  0  0
 26 27  2  0  0  0  0
 27 22  1  0  0  0  0
 12 13  1  0  0  0  0
  9 28  1  0  0  0  0
 28 29  1  0  0  0  0
 13 14  1  0  0  0  0
 25 30  1  0  0  0  0
  6  7  2  0  0  0  0
 30 31  1  0  0  0  0
M  END
> <Value>
4.105130343254747

> <Relation>
=

> <SourceURI>
mol:CHEMBL482118

$$$$

Generated by Molecular Materials Informatics

 30 32  0  0  0  0  0  0  0  0999 V2000
   11.5886   -4.7194    0.0000 N   0  0  0  0  0  0  0  0  0  0  0  0
   10.0888   -4.6974    0.0000 N   0  0  0  0  0  0  0  0  0  0  0  0
    9.6042   -6.1170    0.0000 C   0  0  0  0  0  0  0  0  0  0  0  0
   10.8048   -7.0165    0.0000 S   0  0  0  0  0  0  0  0  0  0  0  0
   12.0310   -6.1525    0.0000 C   0  0  0  0  0  0  0  0  0  0  0  0
    8.2968   -6.8583    0.0000 C   0  0  0  0  0  0  0  0  0  0  0  0
    7.0019   -6.0912    0.0000 C   0  0  0  0  0  0  0  0  0  0  0  0
    5.6953   -6.8314    0.0000 C   0  0  0  0  0  0  0  0  0  0  0  0
    5.6826   -8.3360    0.0000 C   0  0  0  0  0  0  0  0  0  0  0  0
    6.9877   -9.0972    0.0000 C   0  0  0  0  0  0  0  0  0  0  0  0
    8.2888   -8.3529    0.0000 C   0  0  0  0  0  0  0  0  0  0  0  0
   13.3217   -6.9000    0.0000 N   0  0  0  0  0  0  0  0  0  0  0  0
   14.6215   -6.1516    0.0000 C   0  0  0  0  0  0  0  0  0  0  0  0
   15.9197   -6.9032    0.0000 C   0  0  0  0  0  0  0  0  0  0  0  0
   14.6235   -4.6516    0.0000 O   0  0  0  0  0  0  0  0  0  0  0  0
   15.9179   -8.4031    0.0000 C   0  0  0  0  0  0  0  0  0  0  0  0
   17.2196   -6.1547    0.0000 N   0  0  0  0  0  0  0  0  0  0  0  0
   18.5176   -6.9063    0.0000 C   0  0  0  0  0  0  0  0  0  0  0  0
   19.8176   -6.1580    0.0000 C   0  0  0  0  0  0  0  0  0  0  0  0
   18.5158   -8.4063    0.0000 O   0  0  0  0  0  0  0  0  0  0  0  0
   21.1158   -6.9096    0.0000 C   0  0  0  0  0  0  0  0  0  0  0  0
   22.4158   -6.1612    0.0000 C   0  0  0  0  0  0  0  0  0  0  0  0
   23.7096   -6.9187    0.0000 C   0  0  0  0  0  0  0  0  0  0  0  0
   25.0085   -6.1716    0.0000 C   0  0  0  0  0  0  0  0  0  0  0  0
   25.0112   -4.6699    0.0000 C   0  0  0  0  0  0  0  0  0  0  0  0
   23.7040   -3.9189    0.0000 C   0  0  0  0  0  0  0  0  0  0  0  0
   22.4103   -4.6701    0.0000 C   0  0  0  0  0  0  0  0  0  0  0  0
    4.3789   -9.0774    0.0000 C   0  0  0  0  0  0  0  0  0  0  0  0
   26.3102   -3.9199    0.0000 O   0  0  0  0  0  0  0  0  0  0  0  0
   27.6093   -4.6698    0.0000 C   0  0  0  0  0  0  0  0  0  0  0  0
  6  7  2  0  0  0  0
 13 15  2  0  0  0  0
  2  3  2  0  0  0  0
 14 16  1  6  0  0  0
  7  8  1  0  0  0  0
 14 17  1  0  0  0  0
  3  4  1  0  0  0  0
 17 18  1  0  0  0  0
  8  9  2  0  0  0  0
 18 19  1  0  0  0  0
  4  5  1  0  0  0  0
 18 20  2  0  0  0  0
  9 10  1  0  0  0  0
 19 21  2  0  0  0  0
  5  1  2  0  0  0  0
 21 22  1  0  0  0  0
 10 11  2  0  0  0  0
 22 23  2  0  0  0  0
 11  6  1  0  0  0  0
 23 24  1  0  0  0  0
  1  2  1  0  0  0  0
 24 25  2  0  0  0  0
  5 12  1  0  0  0  0
 25 26  1  0  0  0  0
  3  6  1  0  0  0  0
 26 27  2  0  0  0  0
 27 22  1  0  0  0  0
 12 13  1  0  0  0  0
  9 28  1  0  0  0  0
 25 29  1  0  0  0  0
 13 14  1  0  0  0  0
 29 30  1  0  0  0  0
M  END
> <Value>
3.850472986245652

> <Relation>
=

> <SourceURI>
mol:CHEMBL519293

$$$$

Generated by Molecular Materials Informatics

 32 34  0  0  0  0  0  0  0  0999 V2000
   -1.5239   -4.9046    0.0000 N   0  0  0  0  0  0  0  0  0  0  0  0
   -3.0235   -4.8826    0.0000 N   0  0  0  0  0  0  0  0  0  0  0  0
   -3.5082   -6.3021    0.0000 C   0  0  0  0  0  0  0  0  0  0  0  0
   -2.3077   -7.2017    0.0000 S   0  0  0  0  0  0  0  0  0  0  0  0
   -1.0815   -6.3379    0.0000 C   0  0  0  0  0  0  0  0  0  0  0  0
   -4.8157   -7.0435    0.0000 C   0  0  0  0  0  0  0  0  0  0  0  0
   -6.1106   -6.2765    0.0000 C   0  0  0  0  0  0  0  0  0  0  0  0
   -7.4172   -7.0165    0.0000 C   0  0  0  0  0  0  0  0  0  0  0  0
   -7.4297   -8.5210    0.0000 C   0  0  0  0  0  0  0  0  0  0  0  0
   -6.1250   -9.2826    0.0000 C   0  0  0  0  0  0  0  0  0  0  0  0
   -4.8235   -8.5381    0.0000 C   0  0  0  0  0  0  0  0  0  0  0  0
    0.2092   -7.0852    0.0000 N   0  0  0  0  0  0  0  0  0  0  0  0
    1.5091   -6.3368    0.0000 C   0  0  0  0  0  0  0  0  0  0  0  0
    2.8072   -7.0883    0.0000 C   0  0  0  0  0  0  0  0  0  0  0  0
    1.5109   -4.8368    0.0000 O   0  0  0  0  0  0  0  0  0  0  0  0
    2.8052   -8.5883    0.0000 C   0  0  0  0  0  0  0  0  0  0  0  0
    4.1072   -6.3399    0.0000 N   0  0  0  0  0  0  0  0  0  0  0  0
    5.4052   -7.0915    0.0000 C   0  0  0  0  0  0  0  0  0  0  0  0
    6.7053   -6.3432    0.0000 C   0  0  0  0  0  0  0  0  0  0  0  0
    5.4034   -8.5916    0.0000 O   0  0  0  0  0  0  0  0  0  0  0  0
    8.0033   -7.0946    0.0000 C   0  0  0  0  0  0  0  0  0  0  0  0
    9.3033   -6.3463    0.0000 C   0  0  0  0  0  0  0  0  0  0  0  0
   10.5971   -7.1041    0.0000 C   0  0  0  0  0  0  0  0  0  0  0  0
   11.8962   -6.3570    0.0000 C   0  0  0  0  0  0  0  0  0  0  0  0
   11.8987   -4.8554    0.0000 C   0  0  0  0  0  0  0  0  0  0  0  0
   10.5916   -4.1039    0.0000 C   0  0  0  0  0  0  0  0  0  0  0  0
    9.2978   -4.8555    0.0000 C   0  0  0  0  0  0  0  0  0  0  0  0
   -8.7361   -9.2612    0.0000 N   0  3  0  0  0  0  0  0  0  0  0  0
   -8.7459  -10.7612    0.0000 O   0  0  0  0  0  0  0  0  0  0  0  0
  -10.0177   -8.5028    0.0000 O   0  5  0  0  0  0  0  0  0  0  0  0
   13.1976   -4.1052    0.0000 O   0  0  0  0  0  0  0  0  0  0  0  0
   14.4969   -4.8550    0.0000 C   0  0  0  0  0  0  0  0  0  0  0  0
  2  3  2  0  0  0  0
 14 16  1  6  0  0  0
  7  8  1  0  0  0  0
 14 17  1  0  0  0  0
  3  4  1  0  0  0  0
 17 18  1  0  0  0  0
  8  9  2  0  0  0  0
 18 19  1  0  0  0  0
  4  5  1  0  0  0  0
 18 20  2  0  0  0  0
  9 10  1  0  0  0  0
 19 21  2  0  0  0  0
  5  1  2  0  0  0  0
 21 22  1  0  0  0  0
 10 11  2  0  0  0  0
 22 23  2  0  0  0  0
 11  6  1  0  0  0  0
 23 24  1  0  0  0  0
  1  2  1  0  0  0  0
 24 25  2  0  0  0  0
  5 12  1  0  0  0  0
 25 26  1  0  0  0  0
  3  6  1  0  0  0  0
 26 27  2  0  0  0  0
 27 22  1  0  0  0  0
 12 13  1  0  0  0  0
 13 14  1  0  0  0  0
 28 29  2  0  0  0  0
 28 30  1  0  0  0  0
  9 28  1  0  0  0  0
  6  7  2  0  0  0  0
 25 31  1  0  0  0  0
 13 15  2  0  0  0  0
 31 32  1  0  0  0  0
M  CHG  2  28   1  30  -1
M  END
> <Value>
4.350665141287858

> <Relation>
=

> <SourceURI>
mol:CHEMBL481704

$$$$

Generated by Molecular Materials Informatics

 30 32  0  0  0  0  0  0  0  0999 V2000
   10.6355    0.1846    0.0000 N   0  0  0  0  0  0  0  0  0  0  0  0
    9.1357    0.2068    0.0000 N   0  0  0  0  0  0  0  0  0  0  0  0
    8.6513   -1.2130    0.0000 C   0  0  0  0  0  0  0  0  0  0  0  0
    9.8517   -2.1123    0.0000 S   0  0  0  0  0  0  0  0  0  0  0  0
   11.0779   -1.2485    0.0000 C   0  0  0  0  0  0  0  0  0  0  0  0
    7.3437   -1.9541    0.0000 C   0  0  0  0  0  0  0  0  0  0  0  0
    6.0486   -1.1872    0.0000 C   0  0  0  0  0  0  0  0  0  0  0  0
    4.7420   -1.9274    0.0000 C   0  0  0  0  0  0  0  0  0  0  0  0
    4.7295   -3.4319    0.0000 C   0  0  0  0  0  0  0  0  0  0  0  0
    6.0344   -4.1934    0.0000 C   0  0  0  0  0  0  0  0  0  0  0  0
    7.3358   -3.4490    0.0000 C   0  0  0  0  0  0  0  0  0  0  0  0
   12.3686   -1.9959    0.0000 N   0  0  0  0  0  0  0  0  0  0  0  0
   13.6686   -1.2476    0.0000 C   0  0  0  0  0  0  0  0  0  0  0  0
   14.9666   -1.9992    0.0000 C   0  0  0  0  0  0  0  0  0  0  0  0
   13.6704    0.2525    0.0000 O   0  0  0  0  0  0  0  0  0  0  0  0
   14.9648   -3.4992    0.0000 C   0  0  0  0  0  0  0  0  0  0  0  0
   16.2666   -1.2508    0.0000 N   0  0  0  0  0  0  0  0  0  0  0  0
   17.5648   -2.0023    0.0000 C   0  0  0  0  0  0  0  0  0  0  0  0
   18.8648   -1.2539    0.0000 C   0  0  0  0  0  0  0  0  0  0  0  0
   17.5628   -3.5023    0.0000 O   0  0  0  0  0  0  0  0  0  0  0  0
   20.1628   -2.0056    0.0000 C   0  0  0  0  0  0  0  0  0  0  0  0
   21.4628   -1.2572    0.0000 C   0  0  0  0  0  0  0  0  0  0  0  0
   22.7566   -2.0148    0.0000 C   0  0  0  0  0  0  0  0  0  0  0  0
   24.0559   -1.2676    0.0000 C   0  0  0  0  0  0  0  0  0  0  0  0
   24.0585    0.2341    0.0000 C   0  0  0  0  0  0  0  0  0  0  0  0
   22.7514    0.9852    0.0000 C   0  0  0  0  0  0  0  0  0  0  0  0
   21.4575    0.2339    0.0000 C   0  0  0  0  0  0  0  0  0  0  0  0
    3.4256   -4.1734    0.0000 Br  0  0  0  0  0  0  0  0  0  0  0  0
   25.3575    0.9843    0.0000 O   0  0  0  0  0  0  0  0  0  0  0  0
   26.6565    0.2343    0.0000 C   0  0  0  0  0  0  0  0  0  0  0  0
  6  7  2  0  0  0  0
 13 15  2  0  0  0  0
  2  3  2  0  0  0  0
 14 16  1  6  0  0  0
  7  8  1  0  0  0  0
 14 17  1  0  0  0  0
  3  4  1  0  0  0  0
 17 18  1  0  0  0  0
  8  9  2  0  0  0  0
 18 19  1  0  0  0  0
  4  5  1  0  0  0  0
 18 20  2  0  0  0  0
  9 10  1  0  0  0  0
 19 21  2  0  0  0  0
  5  1  2  0  0  0  0
 21 22  1  0  0  0  0
 10 11  2  0  0  0  0
 22 23  2  0  0  0  0
 11  6  1  0  0  0  0
 23 24  1  0  0  0  0
  1  2  1  0  0  0  0
 24 25  2  0  0  0  0
  5 12  1  0  0  0  0
 25 26  1  0  0  0  0
  3  6  1  0  0  0  0
 26 27  2  0  0  0  0
 27 22  1  0  0  0  0
 12 13  1  0  0  0  0
  9 28  1  0  0  0  0
 25 29  1  0  0  0  0
 13 14  1  0  0  0  0
 29 30  1  0  0  0  0
M  END
> <Value>
3.9657727392294495

> <Relation>
=

> <SourceURI>
mol:CHEMBL481533

$$$$

Generated by Molecular Materials Informatics

 30 32  0  0  0  0  0  0  0  0999 V2000
   -2.9359   -0.3470    0.0000 N   0  0  0  0  0  0  0  0  0  0  0  0
   -4.4355   -0.3250    0.0000 N   0  0  0  0  0  0  0  0  0  0  0  0
   -4.9200   -1.7446    0.0000 C   0  0  0  0  0  0  0  0  0  0  0  0
   -3.7195   -2.6442    0.0000 S   0  0  0  0  0  0  0  0  0  0  0  0
   -2.4933   -1.7802    0.0000 C   0  0  0  0  0  0  0  0  0  0  0  0
   -6.2275   -2.4861    0.0000 C   0  0  0  0  0  0  0  0  0  0  0  0
   -7.5226   -1.7188    0.0000 C   0  0  0  0  0  0  0  0  0  0  0  0
   -8.8291   -2.4590    0.0000 C   0  0  0  0  0  0  0  0  0  0  0  0
   -8.8419   -3.9635    0.0000 C   0  0  0  0  0  0  0  0  0  0  0  0
   -7.5368   -4.7250    0.0000 C   0  0  0  0  0  0  0  0  0  0  0  0
   -6.2353   -3.9806    0.0000 C   0  0  0  0  0  0  0  0  0  0  0  0
   -1.2026   -2.5275    0.0000 N   0  0  0  0  0  0  0  0  0  0  0  0
    0.0974   -1.7792    0.0000 C   0  0  0  0  0  0  0  0  0  0  0  0
    1.3954   -2.5308    0.0000 C   0  0  0  0  0  0  0  0  0  0  0  0
    0.0992   -0.2792    0.0000 O   0  0  0  0  0  0  0  0  0  0  0  0
    1.3936   -4.0308    0.0000 C   0  0  0  0  0  0  0  0  0  0  0  0
    2.6954   -1.7824    0.0000 N   0  0  0  0  0  0  0  0  0  0  0  0
    3.9936   -2.5341    0.0000 C   0  0  0  0  0  0  0  0  0  0  0  0
    5.2936   -1.7855    0.0000 C   0  0  0  0  0  0  0  0  0  0  0  0
    3.9916   -4.0341    0.0000 O   0  0  0  0  0  0  0  0  0  0  0  0
    6.5916   -2.5372    0.0000 C   0  0  0  0  0  0  0  0  0  0  0  0
    7.8916   -1.7888    0.0000 C   0  0  0  0  0  0  0  0  0  0  0  0
    9.1854   -2.5464    0.0000 C   0  0  0  0  0  0  0  0  0  0  0  0
   10.4846   -1.7992    0.0000 C   0  0  0  0  0  0  0  0  0  0  0  0
   10.4872   -0.2975    0.0000 C   0  0  0  0  0  0  0  0  0  0  0  0
    9.1799    0.4536    0.0000 C   0  0  0  0  0  0  0  0  0  0  0  0
    7.8861   -0.2979    0.0000 C   0  0  0  0  0  0  0  0  0  0  0  0
  -10.1455   -4.7051    0.0000 Cl  0  0  0  0  0  0  0  0  0  0  0  0
   11.7861    0.4525    0.0000 O   0  0  0  0  0  0  0  0  0  0  0  0
   13.0852   -0.2973    0.0000 C   0  0  0  0  0  0  0  0  0  0  0  0
  6  7  2  0  0  0  0
 13 15  2  0  0  0  0
  2  3  2  0  0  0  0
 14 16  1  6  0  0  0
  7  8  1  0  0  0  0
 14 17  1  0  0  0  0
  3  4  1  0  0  0  0
 17 18  1  0  0  0  0
  8  9  2  0  0  0  0
 18 19  1  0  0  0  0
  4  5  1  0  0  0  0
 18 20  2  0  0  0  0
  9 10  1  0  0  0  0
 19 21  2  0  0  0  0
  5  1  2  0  0  0  0
 21 22  1  0  0  0  0
 10 11  2  0  0  0  0
 22 23  2  0  0  0  0
 11  6  1  0  0  0  0
 23 24  1  0  0  0  0
  1  2  1  0  0  0  0
 24 25  2  0  0  0  0
  5 12  1  0  0  0  0
 25 26  1  0  0  0  0
  3  6  1  0  0  0  0
 26 27  2  0  0  0  0
 27 22  1  0  0  0  0
 12 13  1  0  0  0  0
  9 28  1  0  0  0  0
 25 29  1  0  0  0  0
 13 14  1  0  0  0  0
 29 30  1  0  0  0  0
M  END
> <Value>
3.8709549401120418

> <Relation>
=

> <SourceURI>
mol:CHEMBL481532

$$$$

Generated by Molecular Materials Informatics

 30 32  0  0  0  0  0  0  0  0999 V2000
   10.8920    4.2454    0.0000 N   0  0  0  0  0  0  0  0  0  0  0  0
    9.3923    4.2674    0.0000 N   0  0  0  0  0  0  0  0  0  0  0  0
    8.9076    2.8477    0.0000 C   0  0  0  0  0  0  0  0  0  0  0  0
   10.1083    1.9483    0.0000 S   0  0  0  0  0  0  0  0  0  0  0  0
   11.3345    2.8123    0.0000 C   0  0  0  0  0  0  0  0  0  0  0  0
    7.6001    2.1065    0.0000 C   0  0  0  0  0  0  0  0  0  0  0  0
    6.3054    2.8736    0.0000 C   0  0  0  0  0  0  0  0  0  0  0  0
    4.9987    2.1334    0.0000 C   0  0  0  0  0  0  0  0  0  0  0  0
    4.9861    0.6288    0.0000 C   0  0  0  0  0  0  0  0  0  0  0  0
    6.2909   -0.1324    0.0000 C   0  0  0  0  0  0  0  0  0  0  0  0
    7.5923    0.6119    0.0000 C   0  0  0  0  0  0  0  0  0  0  0  0
   12.6250    2.0648    0.0000 N   0  0  0  0  0  0  0  0  0  0  0  0
   13.9249    2.8132    0.0000 C   0  0  0  0  0  0  0  0  0  0  0  0
   15.2230    2.0616    0.0000 C   0  0  0  0  0  0  0  0  0  0  0  0
   13.9267    4.3132    0.0000 O   0  0  0  0  0  0  0  0  0  0  0  0
   15.2210    0.5618    0.0000 C   0  0  0  0  0  0  0  0  0  0  0  0
   16.5230    2.8099    0.0000 N   0  0  0  0  0  0  0  0  0  0  0  0
   17.8210    2.0585    0.0000 C   0  0  0  0  0  0  0  0  0  0  0  0
   19.1210    2.8068    0.0000 C   0  0  0  0  0  0  0  0  0  0  0  0
   17.8192    0.5585    0.0000 O   0  0  0  0  0  0  0  0  0  0  0  0
   20.4190    2.0552    0.0000 C   0  0  0  0  0  0  0  0  0  0  0  0
   21.7190    2.8036    0.0000 C   0  0  0  0  0  0  0  0  0  0  0  0
   23.0128    2.0461    0.0000 C   0  0  0  0  0  0  0  0  0  0  0  0
   24.3119    2.7932    0.0000 C   0  0  0  0  0  0  0  0  0  0  0  0
   24.3145    4.2948    0.0000 C   0  0  0  0  0  0  0  0  0  0  0  0
   23.0074    5.0459    0.0000 C   0  0  0  0  0  0  0  0  0  0  0  0
   21.7136    4.2947    0.0000 C   0  0  0  0  0  0  0  0  0  0  0  0
    3.6822   -0.1128    0.0000 F   0  0  0  0  0  0  0  0  0  0  0  0
   25.6134    5.0448    0.0000 O   0  0  0  0  0  0  0  0  0  0  0  0
   26.9127    4.2950    0.0000 C   0  0  0  0  0  0  0  0  0  0  0  0
  6  7  2  0  0  0  0
 13 15  2  0  0  0  0
  2  3  2  0  0  0  0
 14 16  1  6  0  0  0
  7  8  1  0  0  0  0
 14 17  1  0  0  0  0
  3  4  1  0  0  0  0
 17 18  1  0  0  0  0
  8  9  2  0  0  0  0
 18 19  1  0  0  0  0
  4  5  1  0  0  0  0
 18 20  2  0  0  0  0
  9 10  1  0  0  0  0
 19 21  2  0  0  0  0
  5  1  2  0  0  0  0
 21 22  1  0  0  0  0
 10 11  2  0  0  0  0
 22 23  2  0  0  0  0
 11  6  1  0  0  0  0
 23 24  1  0  0  0  0
  1  2  1  0  0  0  0
 24 25  2  0  0  0  0
  5 12  1  0  0  0  0
 25 26  1  0  0  0  0
  3  6  1  0  0  0  0
 26 27  2  0  0  0  0
 27 22  1  0  0  0  0
 12 13  1  0  0  0  0
  9 28  1  0  0  0  0
 25 29  1  0  0  0  0
 13 14  1  0  0  0  0
 29 30  1  0  0  0  0
M  END
> <Value>
4.042392712939905

> <Relation>
=

> <SourceURI>
mol:CHEMBL519941

$$$$

Generated by Molecular Materials Informatics

 29 31  0  0  0  0  0  0  0  0999 V2000
   -4.1367    3.5580    0.0000 N   0  0  0  0  0  0  0  0  0  0  0  0
   -5.6363    3.5800    0.0000 N   0  0  0  0  0  0  0  0  0  0  0  0
   -6.1208    2.1604    0.0000 C   0  0  0  0  0  0  0  0  0  0  0  0
   -4.9203    1.2608    0.0000 S   0  0  0  0  0  0  0  0  0  0  0  0
   -3.6941    2.1248    0.0000 C   0  0  0  0  0  0  0  0  0  0  0  0
   -7.4283    1.4189    0.0000 C   0  0  0  0  0  0  0  0  0  0  0  0
   -8.7234    2.1862    0.0000 C   0  0  0  0  0  0  0  0  0  0  0  0
  -10.0299    1.4460    0.0000 C   0  0  0  0  0  0  0  0  0  0  0  0
  -10.0427   -0.0587    0.0000 C   0  0  0  0  0  0  0  0  0  0  0  0
   -8.7376   -0.8200    0.0000 C   0  0  0  0  0  0  0  0  0  0  0  0
   -7.4361   -0.0756    0.0000 C   0  0  0  0  0  0  0  0  0  0  0  0
   -2.4034    1.3773    0.0000 N   0  0  0  0  0  0  0  0  0  0  0  0
   -1.1034    2.1258    0.0000 C   0  0  0  0  0  0  0  0  0  0  0  0
    0.1946    1.3742    0.0000 C   0  0  0  0  0  0  0  0  0  0  0  0
   -1.1016    3.6258    0.0000 O   0  0  0  0  0  0  0  0  0  0  0  0
    0.1928   -0.1258    0.0000 C   0  0  0  0  0  0  0  0  0  0  0  0
    1.4946    2.1226    0.0000 N   0  0  0  0  0  0  0  0  0  0  0  0
    2.7928    1.3709    0.0000 C   0  0  0  0  0  0  0  0  0  0  0  0
    4.0927    2.1193    0.0000 C   0  0  0  0  0  0  0  0  0  0  0  0
    2.7908   -0.1291    0.0000 O   0  0  0  0  0  0  0  0  0  0  0  0
    5.3907    1.3678    0.0000 C   0  0  0  0  0  0  0  0  0  0  0  0
    6.6907    2.1162    0.0000 C   0  0  0  0  0  0  0  0  0  0  0  0
    7.9845    1.3586    0.0000 C   0  0  0  0  0  0  0  0  0  0  0  0
    9.2838    2.1058    0.0000 C   0  0  0  0  0  0  0  0  0  0  0  0
    9.2864    3.6073    0.0000 C   0  0  0  0  0  0  0  0  0  0  0  0
    7.9791    4.3586    0.0000 C   0  0  0  0  0  0  0  0  0  0  0  0
    6.6853    3.6071    0.0000 C   0  0  0  0  0  0  0  0  0  0  0  0
   10.5853    4.3573    0.0000 O   0  0  0  0  0  0  0  0  0  0  0  0
   11.8844    3.6077    0.0000 C   0  0  0  0  0  0  0  0  0  0  0  0
 13 14  1  0  0  0  0
  6  7  2  0  0  0  0
 13 15  2  0  0  0  0
  2  3  2  0  0  0  0
 14 16  1  6  0  0  0
  7  8  1  0  0  0  0
 14 17  1  0  0  0  0
  3  4  1  0  0  0  0
 17 18  1  0  0  0  0
  8  9  2  0  0  0  0
 18 19  1  0  0  0  0
  4  5  1  0  0  0  0
 18 20  2  0  0  0  0
  9 10  1  0  0  0  0
 19 21  2  0  0  0  0
  5  1  2  0  0  0  0
 21 22  1  0  0  0  0
 10 11  2  0  0  0  0
 22 23  2  0  0  0  0
 11  6  1  0  0  0  0
 23 24  1  0  0  0  0
  1  2  1  0  0  0  0
 24 25  2  0  0  0  0
  5 12  1  0  0  0  0
 25 26  1  0  0  0  0
  3  6  1  0  0  0  0
 26 27  2  0  0  0  0
 27 22  1  0  0  0  0
 12 13  1  0  0  0  0
 25 28  1  0  0  0  0
 28 29  1  0  0  0  0
M  END
> <Value>
3.8823973083099155

> <Relation>
=

> <SourceURI>
mol:CHEMBL523537

$$$$

Generated by Molecular Materials Informatics

 30 32  0  0  0  0  0  0  0  0999 V2000
   -1.9719  -10.1888    0.0000 N   0  0  0  0  0  0  0  0  0  0  0  0
   -3.4718  -10.1668    0.0000 N   0  0  0  0  0  0  0  0  0  0  0  0
   -3.9563  -11.5863    0.0000 C   0  0  0  0  0  0  0  0  0  0  0  0
   -2.7558  -12.4859    0.0000 S   0  0  0  0  0  0  0  0  0  0  0  0
   -1.5296  -11.6219    0.0000 C   0  0  0  0  0  0  0  0  0  0  0  0
   -5.2639  -12.3277    0.0000 C   0  0  0  0  0  0  0  0  0  0  0  0
   -6.5587  -11.5605    0.0000 C   0  0  0  0  0  0  0  0  0  0  0  0
   -7.8652  -12.3006    0.0000 C   0  0  0  0  0  0  0  0  0  0  0  0
   -7.8778  -13.8052    0.0000 C   0  0  0  0  0  0  0  0  0  0  0  0
   -6.5730  -14.5666    0.0000 C   0  0  0  0  0  0  0  0  0  0  0  0
   -5.2718  -13.8223    0.0000 C   0  0  0  0  0  0  0  0  0  0  0  0
   -0.2390  -12.3694    0.0000 N   0  0  0  0  0  0  0  0  0  0  0  0
    1.0610  -11.6210    0.0000 C   0  0  0  0  0  0  0  0  0  0  0  0
    2.3591  -12.3725    0.0000 C   0  0  0  0  0  0  0  0  0  0  0  0
    1.0628  -10.1210    0.0000 O   0  0  0  0  0  0  0  0  0  0  0  0
    2.3571  -13.8724    0.0000 C   0  0  0  0  0  0  0  0  0  0  0  0
    3.6591  -11.6241    0.0000 N   0  0  0  0  0  0  0  0  0  0  0  0
    4.9571  -12.3757    0.0000 C   0  0  0  0  0  0  0  0  0  0  0  0
    6.2570  -11.6274    0.0000 C   0  0  0  0  0  0  0  0  0  0  0  0
    4.9553  -13.8757    0.0000 O   0  0  0  0  0  0  0  0  0  0  0  0
    7.5550  -12.3788    0.0000 C   0  0  0  0  0  0  0  0  0  0  0  0
    8.8550  -11.6305    0.0000 C   0  0  0  0  0  0  0  0  0  0  0  0
   10.1490  -12.3881    0.0000 C   0  0  0  0  0  0  0  0  0  0  0  0
   11.4479  -11.6410    0.0000 C   0  0  0  0  0  0  0  0  0  0  0  0
   11.4506  -10.1394    0.0000 C   0  0  0  0  0  0  0  0  0  0  0  0
   10.1433   -9.3881    0.0000 C   0  0  0  0  0  0  0  0  0  0  0  0
    8.8495  -10.1395    0.0000 C   0  0  0  0  0  0  0  0  0  0  0  0
   -9.1818  -14.5468    0.0000 O   0  0  0  0  0  0  0  0  0  0  0  0
   -9.1914  -16.0468    0.0000 C   0  0  0  0  0  0  0  0  0  0  0  0
   12.7495   -9.3894    0.0000 O   0  0  0  0  0  0  0  0  0  0  0  0
  6  7  2  0  0  0  0
 13 15  2  0  0  0  0
  2  3  2  0  0  0  0
 14 16  1  6  0  0  0
  7  8  1  0  0  0  0
 14 17  1  0  0  0  0
  3  4  1  0  0  0  0
 17 18  1  0  0  0  0
  8  9  2  0  0  0  0
 18 19  1  0  0  0  0
  4  5  1  0  0  0  0
 18 20  2  0  0  0  0
  9 10  1  0  0  0  0
 19 21  2  0  0  0  0
  5  1  2  0  0  0  0
 21 22  1  0  0  0  0
 10 11  2  0  0  0  0
 22 23  2  0  0  0  0
 11  6  1  0  0  0  0
 23 24  1  0  0  0  0
  1  2  1  0  0  0  0
 24 25  2  0  0  0  0
  5 12  1  0  0  0  0
 25 26  1  0  0  0  0
  3  6  1  0  0  0  0
 26 27  2  0  0  0  0
 27 22  1  0  0  0  0
 12 13  1  0  0  0  0
  9 28  1  0  0  0  0
 28 29  1  0  0  0  0
 13 14  1  0  0  0  0
 25 30  1  0  0  0  0
M  END
> <Value>
4.162411561764489

> <Relation>
=

> <SourceURI>
mol:CHEMBL521980

$$$$

Generated by Molecular Materials Informatics

 29 31  0  0  0  0  0  0  0  0999 V2000
   11.7206   -5.1959    0.0000 N   0  0  0  0  0  0  0  0  0  0  0  0
   10.2208   -5.1740    0.0000 N   0  0  0  0  0  0  0  0  0  0  0  0
    9.7363   -6.5936    0.0000 C   0  0  0  0  0  0  0  0  0  0  0  0
   10.9368   -7.4930    0.0000 S   0  0  0  0  0  0  0  0  0  0  0  0
   12.1630   -6.6294    0.0000 C   0  0  0  0  0  0  0  0  0  0  0  0
    8.4286   -7.3348    0.0000 C   0  0  0  0  0  0  0  0  0  0  0  0
    7.1339   -6.5679    0.0000 C   0  0  0  0  0  0  0  0  0  0  0  0
    5.8274   -7.3079    0.0000 C   0  0  0  0  0  0  0  0  0  0  0  0
    5.8147   -8.8125    0.0000 C   0  0  0  0  0  0  0  0  0  0  0  0
    7.1196   -9.5741    0.0000 C   0  0  0  0  0  0  0  0  0  0  0  0
    8.4208   -8.8294    0.0000 C   0  0  0  0  0  0  0  0  0  0  0  0
   13.4535   -7.3765    0.0000 N   0  0  0  0  0  0  0  0  0  0  0  0
   14.7535   -6.6281    0.0000 C   0  0  0  0  0  0  0  0  0  0  0  0
   16.0517   -7.3797    0.0000 C   0  0  0  0  0  0  0  0  0  0  0  0
   14.7553   -5.1281    0.0000 O   0  0  0  0  0  0  0  0  0  0  0  0
   16.0497   -8.8797    0.0000 C   0  0  0  0  0  0  0  0  0  0  0  0
   17.3517   -6.6314    0.0000 N   0  0  0  0  0  0  0  0  0  0  0  0
   18.6495   -7.3828    0.0000 C   0  0  0  0  0  0  0  0  0  0  0  0
   19.9494   -6.6345    0.0000 C   0  0  0  0  0  0  0  0  0  0  0  0
   18.6478   -8.8828    0.0000 O   0  0  0  0  0  0  0  0  0  0  0  0
   21.2474   -7.3861    0.0000 C   0  0  0  0  0  0  0  0  0  0  0  0
   22.5474   -6.6378    0.0000 C   0  0  0  0  0  0  0  0  0  0  0  0
   23.8414   -7.3956    0.0000 C   0  0  0  0  0  0  0  0  0  0  0  0
   25.1403   -6.6483    0.0000 C   0  0  0  0  0  0  0  0  0  0  0  0
   25.1428   -5.1469    0.0000 C   0  0  0  0  0  0  0  0  0  0  0  0
   23.8358   -4.3954    0.0000 C   0  0  0  0  0  0  0  0  0  0  0  0
   22.5420   -5.1470    0.0000 C   0  0  0  0  0  0  0  0  0  0  0  0
    4.5109   -9.5541    0.0000 C   0  0  0  0  0  0  0  0  0  0  0  0
   26.4419   -4.3967    0.0000 O   0  0  0  0  0  0  0  0  0  0  0  0
 13 14  1  0  0  0  0
  6  7  2  0  0  0  0
 13 15  2  0  0  0  0
  2  3  2  0  0  0  0
 14 16  1  6  0  0  0
  7  8  1  0  0  0  0
 14 17  1  0  0  0  0
  3  4  1  0  0  0  0
 17 18  1  0  0  0  0
  8  9  2  0  0  0  0
 18 19  1  0  0  0  0
  4  5  1  0  0  0  0
 18 20  2  0  0  0  0
  9 10  1  0  0  0  0
 19 21  2  0  0  0  0
  5  1  2  0  0  0  0
 21 22  1  0  0  0  0
 10 11  2  0  0  0  0
 22 23  2  0  0  0  0
 11  6  1  0  0  0  0
 23 24  1  0  0  0  0
  1  2  1  0  0  0  0
 24 25  2  0  0  0  0
  5 12  1  0  0  0  0
 25 26  1  0  0  0  0
  3  6  1  0  0  0  0
 26 27  2  0  0  0  0
 27 22  1  0  0  0  0
 12 13  1  0  0  0  0
  9 28  1  0  0  0  0
 25 29  1  0  0  0  0
M  END
> <Value>
3.896880746454286

> <Relation>
=

> <SourceURI>
mol:CHEMBL492436

$$$$

Generated by Molecular Materials Informatics

 31 33  0  0  0  0  0  0  0  0999 V2000
   -1.3921   -5.3813    0.0000 N   0  0  0  0  0  0  0  0  0  0  0  0
   -2.8918   -5.3593    0.0000 N   0  0  0  0  0  0  0  0  0  0  0  0
   -3.3763   -6.7790    0.0000 C   0  0  0  0  0  0  0  0  0  0  0  0
   -2.1758   -7.6784    0.0000 S   0  0  0  0  0  0  0  0  0  0  0  0
   -0.9496   -6.8146    0.0000 C   0  0  0  0  0  0  0  0  0  0  0  0
   -4.6837   -7.5202    0.0000 C   0  0  0  0  0  0  0  0  0  0  0  0
   -5.9788   -6.7531    0.0000 C   0  0  0  0  0  0  0  0  0  0  0  0
   -7.2854   -7.4933    0.0000 C   0  0  0  0  0  0  0  0  0  0  0  0
   -7.2981   -8.9980    0.0000 C   0  0  0  0  0  0  0  0  0  0  0  0
   -5.9930   -9.7593    0.0000 C   0  0  0  0  0  0  0  0  0  0  0  0
   -4.6916   -9.0149    0.0000 C   0  0  0  0  0  0  0  0  0  0  0  0
    0.3411   -7.5620    0.0000 N   0  0  0  0  0  0  0  0  0  0  0  0
    1.6411   -6.8135    0.0000 C   0  0  0  0  0  0  0  0  0  0  0  0
    2.9391   -7.5651    0.0000 C   0  0  0  0  0  0  0  0  0  0  0  0
    1.6429   -5.3135    0.0000 O   0  0  0  0  0  0  0  0  0  0  0  0
    2.9373   -9.0651    0.0000 C   0  0  0  0  0  0  0  0  0  0  0  0
    4.2391   -6.8168    0.0000 N   0  0  0  0  0  0  0  0  0  0  0  0
    5.5372   -7.5684    0.0000 C   0  0  0  0  0  0  0  0  0  0  0  0
    6.8372   -6.8201    0.0000 C   0  0  0  0  0  0  0  0  0  0  0  0
    5.5352   -9.0684    0.0000 O   0  0  0  0  0  0  0  0  0  0  0  0
    8.1352   -7.5715    0.0000 C   0  0  0  0  0  0  0  0  0  0  0  0
    9.4352   -6.8231    0.0000 C   0  0  0  0  0  0  0  0  0  0  0  0
   10.7290   -7.5808    0.0000 C   0  0  0  0  0  0  0  0  0  0  0  0
   12.0283   -6.8335    0.0000 C   0  0  0  0  0  0  0  0  0  0  0  0
   12.0308   -5.3321    0.0000 C   0  0  0  0  0  0  0  0  0  0  0  0
   10.7235   -4.5808    0.0000 C   0  0  0  0  0  0  0  0  0  0  0  0
    9.4297   -5.3323    0.0000 C   0  0  0  0  0  0  0  0  0  0  0  0
   -8.6044   -9.7382    0.0000 N   0  3  0  0  0  0  0  0  0  0  0  0
   -8.6141  -11.2382    0.0000 O   0  0  0  0  0  0  0  0  0  0  0  0
   -9.8857   -8.9799    0.0000 O   0  5  0  0  0  0  0  0  0  0  0  0
   13.3297   -4.5819    0.0000 O   0  0  0  0  0  0  0  0  0  0  0  0
 13 15  2  0  0  0  0
  2  3  2  0  0  0  0
 14 16  1  6  0  0  0
  7  8  1  0  0  0  0
 14 17  1  0  0  0  0
  3  4  1  0  0  0  0
 17 18  1  0  0  0  0
  8  9  2  0  0  0  0
 18 19  1  0  0  0  0
  4  5  1  0  0  0  0
 18 20  2  0  0  0  0
  9 10  1  0  0  0  0
 19 21  2  0  0  0  0
  5  1  2  0  0  0  0
 21 22  1  0  0  0  0
 10 11  2  0  0  0  0
 22 23  2  0  0  0  0
 11  6  1  0  0  0  0
 23 24  1  0  0  0  0
  1  2  1  0  0  0  0
 24 25  2  0  0  0  0
  5 12  1  0  0  0  0
 25 26  1  0  0  0  0
  3  6  1  0  0  0  0
 26 27  2  0  0  0  0
 27 22  1  0  0  0  0
 12 13  1  0  0  0  0
 13 14  1  0  0  0  0
 28 29  2  0  0  0  0
 28 30  1  0  0  0  0
  9 28  1  0  0  0  0
  6  7  2  0  0  0  0
 25 31  1  0  0  0  0
M  CHG  2  28   1  30  -1
M  END
> <Value>
4.266802734893431

> <Relation>
=

> <SourceURI>
mol:CHEMBL492239

$$$$

Generated by Molecular Materials Informatics

 29 31  0  0  0  0  0  0  0  0999 V2000
   10.7671   -0.2920    0.0000 N   0  0  0  0  0  0  0  0  0  0  0  0
    9.2675   -0.2700    0.0000 N   0  0  0  0  0  0  0  0  0  0  0  0
    8.7828   -1.6897    0.0000 C   0  0  0  0  0  0  0  0  0  0  0  0
    9.9833   -2.5891    0.0000 S   0  0  0  0  0  0  0  0  0  0  0  0
   11.2095   -1.7251    0.0000 C   0  0  0  0  0  0  0  0  0  0  0  0
    7.4755   -2.4309    0.0000 C   0  0  0  0  0  0  0  0  0  0  0  0
    6.1804   -1.6638    0.0000 C   0  0  0  0  0  0  0  0  0  0  0  0
    4.8739   -2.4040    0.0000 C   0  0  0  0  0  0  0  0  0  0  0  0
    4.8613   -3.9086    0.0000 C   0  0  0  0  0  0  0  0  0  0  0  0
    6.1662   -4.6698    0.0000 C   0  0  0  0  0  0  0  0  0  0  0  0
    7.4675   -3.9255    0.0000 C   0  0  0  0  0  0  0  0  0  0  0  0
   12.5004   -2.4726    0.0000 N   0  0  0  0  0  0  0  0  0  0  0  0
   13.8000   -1.7242    0.0000 C   0  0  0  0  0  0  0  0  0  0  0  0
   15.0982   -2.4758    0.0000 C   0  0  0  0  0  0  0  0  0  0  0  0
   13.8021   -0.2242    0.0000 O   0  0  0  0  0  0  0  0  0  0  0  0
   15.0964   -3.9756    0.0000 C   0  0  0  0  0  0  0  0  0  0  0  0
   16.3982   -1.7273    0.0000 N   0  0  0  0  0  0  0  0  0  0  0  0
   17.6962   -2.4789    0.0000 C   0  0  0  0  0  0  0  0  0  0  0  0
   18.9962   -1.7306    0.0000 C   0  0  0  0  0  0  0  0  0  0  0  0
   17.6944   -3.9789    0.0000 O   0  0  0  0  0  0  0  0  0  0  0  0
   20.2944   -2.4822    0.0000 C   0  0  0  0  0  0  0  0  0  0  0  0
   21.5944   -1.7338    0.0000 C   0  0  0  0  0  0  0  0  0  0  0  0
   22.8880   -2.4913    0.0000 C   0  0  0  0  0  0  0  0  0  0  0  0
   24.1871   -1.7442    0.0000 C   0  0  0  0  0  0  0  0  0  0  0  0
   24.1899   -0.2426    0.0000 C   0  0  0  0  0  0  0  0  0  0  0  0
   22.8826    0.5085    0.0000 C   0  0  0  0  0  0  0  0  0  0  0  0
   21.5890   -0.2427    0.0000 C   0  0  0  0  0  0  0  0  0  0  0  0
    3.5575   -4.6502    0.0000 Br  0  0  0  0  0  0  0  0  0  0  0  0
   25.4886    0.5074    0.0000 O   0  0  0  0  0  0  0  0  0  0  0  0
 13 14  1  0  0  0  0
  6  7  2  0  0  0  0
 13 15  2  0  0  0  0
  2  3  2  0  0  0  0
 14 16  1  6  0  0  0
  7  8  1  0  0  0  0
 14 17  1  0  0  0  0
  3  4  1  0  0  0  0
 17 18  1  0  0  0  0
  8  9  2  0  0  0  0
 18 19  1  0  0  0  0
  4  5  1  0  0  0  0
 18 20  2  0  0  0  0
  9 10  1  0  0  0  0
 19 21  2  0  0  0  0
  5  1  2  0  0  0  0
 21 22  1  0  0  0  0
 10 11  2  0  0  0  0
 22 23  2  0  0  0  0
 11  6  1  0  0  0  0
 23 24  1  0  0  0  0
  1  2  1  0  0  0  0
 24 25  2  0  0  0  0
  5 12  1  0  0  0  0
 25 26  1  0  0  0  0
  3  6  1  0  0  0  0
 26 27  2  0  0  0  0
 27 22  1  0  0  0  0
 12 13  1  0  0  0  0
  9 28  1  0  0  0  0
 25 29  1  0  0  0  0
M  END
> <Value>
4.452225294612178

> <Relation>
=

> <SourceURI>
mol:CHEMBL495296

$$$$

Generated by Molecular Materials Informatics

 29 31  0  0  0  0  0  0  0  0999 V2000
   -2.8038   -0.8235    0.0000 N   0  0  0  0  0  0  0  0  0  0  0  0
   -4.3036   -0.8015    0.0000 N   0  0  0  0  0  0  0  0  0  0  0  0
   -4.7881   -2.2212    0.0000 C   0  0  0  0  0  0  0  0  0  0  0  0
   -3.5876   -3.1206    0.0000 S   0  0  0  0  0  0  0  0  0  0  0  0
   -2.3614   -2.2570    0.0000 C   0  0  0  0  0  0  0  0  0  0  0  0
   -6.0956   -2.9624    0.0000 C   0  0  0  0  0  0  0  0  0  0  0  0
   -7.3905   -2.1955    0.0000 C   0  0  0  0  0  0  0  0  0  0  0  0
   -8.6970   -2.9355    0.0000 C   0  0  0  0  0  0  0  0  0  0  0  0
   -8.7096   -4.4401    0.0000 C   0  0  0  0  0  0  0  0  0  0  0  0
   -7.4047   -5.2017    0.0000 C   0  0  0  0  0  0  0  0  0  0  0  0
   -6.1036   -4.4570    0.0000 C   0  0  0  0  0  0  0  0  0  0  0  0
   -1.0707   -3.0041    0.0000 N   0  0  0  0  0  0  0  0  0  0  0  0
    0.2292   -2.2557    0.0000 C   0  0  0  0  0  0  0  0  0  0  0  0
    1.5273   -3.0073    0.0000 C   0  0  0  0  0  0  0  0  0  0  0  0
    0.2312   -0.7557    0.0000 O   0  0  0  0  0  0  0  0  0  0  0  0
    1.5255   -4.5073    0.0000 C   0  0  0  0  0  0  0  0  0  0  0  0
    2.8273   -2.2590    0.0000 N   0  0  0  0  0  0  0  0  0  0  0  0
    4.1253   -3.0104    0.0000 C   0  0  0  0  0  0  0  0  0  0  0  0
    5.4251   -2.2621    0.0000 C   0  0  0  0  0  0  0  0  0  0  0  0
    4.1235   -4.5104    0.0000 O   0  0  0  0  0  0  0  0  0  0  0  0
    6.7233   -3.0137    0.0000 C   0  0  0  0  0  0  0  0  0  0  0  0
    8.0233   -2.2654    0.0000 C   0  0  0  0  0  0  0  0  0  0  0  0
    9.3171   -3.0232    0.0000 C   0  0  0  0  0  0  0  0  0  0  0  0
   10.6161   -2.2759    0.0000 C   0  0  0  0  0  0  0  0  0  0  0  0
   10.6190   -0.7744    0.0000 C   0  0  0  0  0  0  0  0  0  0  0  0
    9.3115   -0.0230    0.0000 C   0  0  0  0  0  0  0  0  0  0  0  0
    8.0179   -0.7746    0.0000 C   0  0  0  0  0  0  0  0  0  0  0  0
  -10.0134   -5.1817    0.0000 Cl  0  0  0  0  0  0  0  0  0  0  0  0
   11.9177   -0.0243    0.0000 O   0  0  0  0  0  0  0  0  0  0  0  0
 13 14  1  0  0  0  0
  6  7  2  0  0  0  0
 13 15  2  0  0  0  0
  2  3  2  0  0  0  0
 14 16  1  6  0  0  0
  7  8  1  0  0  0  0
 14 17  1  0  0  0  0
  3  4  1  0  0  0  0
 17 18  1  0  0  0  0
  8  9  2  0  0  0  0
 18 19  1  0  0  0  0
  4  5  1  0  0  0  0
 18 20  2  0  0  0  0
  9 10  1  0  0  0  0
 19 21  2  0  0  0  0
  5  1  2  0  0  0  0
 21 22  1  0  0  0  0
 10 11  2  0  0  0  0
 22 23  2  0  0  0  0
 11  6  1  0  0  0  0
 23 24  1  0  0  0  0
  1  2  1  0  0  0  0
 24 25  2  0  0  0  0
  5 12  1  0  0  0  0
 25 26  1  0  0  0  0
  3  6  1  0  0  0  0
 26 27  2  0  0  0  0
 27 22  1  0  0  0  0
 12 13  1  0  0  0  0
  9 28  1  0  0  0  0
 25 29  1  0  0  0  0
M  END
> <Value>
3.979224511806442

> <Relation>
=

> <SourceURI>
mol:CHEMBL521530

$$$$

Generated by Molecular Materials Informatics

 29 31  0  0  0  0  0  0  0  0999 V2000
   10.2309    3.1179    0.0000 N   0  0  0  0  0  0  0  0  0  0  0  0
    8.7311    3.1399    0.0000 N   0  0  0  0  0  0  0  0  0  0  0  0
    8.2465    1.7204    0.0000 C   0  0  0  0  0  0  0  0  0  0  0  0
    9.4471    0.8208    0.0000 S   0  0  0  0  0  0  0  0  0  0  0  0
   10.6733    1.6848    0.0000 C   0  0  0  0  0  0  0  0  0  0  0  0
    6.9391    0.9790    0.0000 C   0  0  0  0  0  0  0  0  0  0  0  0
    5.6441    1.7463    0.0000 C   0  0  0  0  0  0  0  0  0  0  0  0
    4.3376    1.0061    0.0000 C   0  0  0  0  0  0  0  0  0  0  0  0
    4.3250   -0.4987    0.0000 C   0  0  0  0  0  0  0  0  0  0  0  0
    5.6300   -1.2600    0.0000 C   0  0  0  0  0  0  0  0  0  0  0  0
    6.9311   -0.5156    0.0000 C   0  0  0  0  0  0  0  0  0  0  0  0
   11.9640    0.9373    0.0000 N   0  0  0  0  0  0  0  0  0  0  0  0
   13.2638    1.6857    0.0000 C   0  0  0  0  0  0  0  0  0  0  0  0
   14.5620    0.9342    0.0000 C   0  0  0  0  0  0  0  0  0  0  0  0
   13.2658    3.1857    0.0000 O   0  0  0  0  0  0  0  0  0  0  0  0
   14.5602   -0.5658    0.0000 C   0  0  0  0  0  0  0  0  0  0  0  0
   15.8620    1.6826    0.0000 N   0  0  0  0  0  0  0  0  0  0  0  0
   17.1601    0.9310    0.0000 C   0  0  0  0  0  0  0  0  0  0  0  0
   18.4599    1.6793    0.0000 C   0  0  0  0  0  0  0  0  0  0  0  0
   17.1582   -0.5690    0.0000 O   0  0  0  0  0  0  0  0  0  0  0  0
   19.7581    0.9277    0.0000 C   0  0  0  0  0  0  0  0  0  0  0  0
   21.0581    1.6763    0.0000 C   0  0  0  0  0  0  0  0  0  0  0  0
   22.3519    0.9186    0.0000 C   0  0  0  0  0  0  0  0  0  0  0  0
   23.6508    1.6657    0.0000 C   0  0  0  0  0  0  0  0  0  0  0  0
   23.6538    3.1674    0.0000 C   0  0  0  0  0  0  0  0  0  0  0  0
   22.3463    3.9185    0.0000 C   0  0  0  0  0  0  0  0  0  0  0  0
   21.0528    3.1672    0.0000 C   0  0  0  0  0  0  0  0  0  0  0  0
    3.0212   -1.2401    0.0000 F   0  0  0  0  0  0  0  0  0  0  0  0
   24.9525    3.9174    0.0000 O   0  0  0  0  0  0  0  0  0  0  0  0
 13 14  1  0  0  0  0
  6  7  2  0  0  0  0
 13 15  2  0  0  0  0
  2  3  2  0  0  0  0
 14 16  1  6  0  0  0
  7  8  1  0  0  0  0
 14 17  1  0  0  0  0
  3  4  1  0  0  0  0
 17 18  1  0  0  0  0
  8  9  2  0  0  0  0
 18 19  1  0  0  0  0
  4  5  1  0  0  0  0
 18 20  2  0  0  0  0
  9 10  1  0  0  0  0
 19 21  2  0  0  0  0
  5  1  2  0  0  0  0
 21 22  1  0  0  0  0
 10 11  2  0  0  0  0
 22 23  2  0  0  0  0
 11  6  1  0  0  0  0
 23 24  1  0  0  0  0
  1  2  1  0  0  0  0
 24 25  2  0  0  0  0
  5 12  1  0  0  0  0
 25 26  1  0  0  0  0
  3  6  1  0  0  0  0
 26 27  2  0  0  0  0
 27 22  1  0  0  0  0
 12 13  1  0  0  0  0
  9 28  1  0  0  0  0
 25 29  1  0  0  0  0
M  END
> <Value>
3.9377941911802874

> <Relation>
=

> <SourceURI>
mol:CHEMBL495295

$$$$

Generated by Molecular Materials Informatics

 28 30  0  0  0  0  0  0  0  0999 V2000
   -4.0046    3.0814    0.0000 N   0  0  0  0  0  0  0  0  0  0  0  0
   -5.5044    3.1034    0.0000 N   0  0  0  0  0  0  0  0  0  0  0  0
   -5.9890    1.6837    0.0000 C   0  0  0  0  0  0  0  0  0  0  0  0
   -4.7884    0.7843    0.0000 S   0  0  0  0  0  0  0  0  0  0  0  0
   -3.5623    1.6479    0.0000 C   0  0  0  0  0  0  0  0  0  0  0  0
   -7.2962    0.9425    0.0000 C   0  0  0  0  0  0  0  0  0  0  0  0
   -8.5913    1.7094    0.0000 C   0  0  0  0  0  0  0  0  0  0  0  0
   -9.8979    0.9694    0.0000 C   0  0  0  0  0  0  0  0  0  0  0  0
   -9.9104   -0.5352    0.0000 C   0  0  0  0  0  0  0  0  0  0  0  0
   -8.6055   -1.2968    0.0000 C   0  0  0  0  0  0  0  0  0  0  0  0
   -7.3042   -0.5521    0.0000 C   0  0  0  0  0  0  0  0  0  0  0  0
   -2.2715    0.9008    0.0000 N   0  0  0  0  0  0  0  0  0  0  0  0
   -0.9717    1.6492    0.0000 C   0  0  0  0  0  0  0  0  0  0  0  0
    0.3265    0.8976    0.0000 C   0  0  0  0  0  0  0  0  0  0  0  0
   -0.9697    3.1492    0.0000 O   0  0  0  0  0  0  0  0  0  0  0  0
    0.3247   -0.6023    0.0000 C   0  0  0  0  0  0  0  0  0  0  0  0
    1.6265    1.6459    0.0000 N   0  0  0  0  0  0  0  0  0  0  0  0
    2.9245    0.8945    0.0000 C   0  0  0  0  0  0  0  0  0  0  0  0
    4.2245    1.6428    0.0000 C   0  0  0  0  0  0  0  0  0  0  0  0
    2.9227   -0.6055    0.0000 O   0  0  0  0  0  0  0  0  0  0  0  0
    5.5227    0.8912    0.0000 C   0  0  0  0  0  0  0  0  0  0  0  0
    6.8225    1.6395    0.0000 C   0  0  0  0  0  0  0  0  0  0  0  0
    8.1163    0.8817    0.0000 C   0  0  0  0  0  0  0  0  0  0  0  0
    9.4152    1.6290    0.0000 C   0  0  0  0  0  0  0  0  0  0  0  0
    9.4181    3.1306    0.0000 C   0  0  0  0  0  0  0  0  0  0  0  0
    8.1106    3.8819    0.0000 C   0  0  0  0  0  0  0  0  0  0  0  0
    6.8172    3.1303    0.0000 C   0  0  0  0  0  0  0  0  0  0  0  0
   10.7168    3.8808    0.0000 O   0  0  0  0  0  0  0  0  0  0  0  0
 13 14  1  0  0  0  0
  6  7  2  0  0  0  0
 13 15  2  0  0  0  0
  2  3  2  0  0  0  0
 14 16  1  6  0  0  0
  7  8  1  0  0  0  0
 14 17  1  0  0  0  0
  3  4  1  0  0  0  0
 17 18  1  0  0  0  0
  8  9  2  0  0  0  0
 18 19  1  0  0  0  0
  4  5  1  0  0  0  0
 18 20  2  0  0  0  0
  9 10  1  0  0  0  0
 19 21  2  0  0  0  0
  5  1  2  0  0  0  0
 21 22  1  0  0  0  0
 10 11  2  0  0  0  0
 22 23  2  0  0  0  0
 11  6  1  0  0  0  0
 23 24  1  0  0  0  0
  1  2  1  0  0  0  0
 24 25  2  0  0  0  0
  5 12  1  0  0  0  0
 25 26  1  0  0  0  0
  3  6  1  0  0  0  0
 26 27  2  0  0  0  0
 27 22  1  0  0  0  0
 12 13  1  0  0  0  0
 25 28  1  0  0  0  0
M  END
> <Value>
3.9069286936239367

> <Relation>
=

> <SourceURI>
mol:CHEMBL492843

$$$$

Generated by Molecular Materials Informatics

 29 31  0  0  0  0  0  0  0  0999 V2000
   -2.7891  -10.0974    0.0000 N   0  0  0  0  0  0  0  0  0  0  0  0
   -4.2888  -10.0752    0.0000 N   0  0  0  0  0  0  0  0  0  0  0  0
   -4.7733  -11.4950    0.0000 C   0  0  0  0  0  0  0  0  0  0  0  0
   -3.5728  -12.3943    0.0000 S   0  0  0  0  0  0  0  0  0  0  0  0
   -2.3466  -11.5305    0.0000 C   0  0  0  0  0  0  0  0  0  0  0  0
   -6.0808  -12.2361    0.0000 C   0  0  0  0  0  0  0  0  0  0  0  0
   -7.3758  -11.4692    0.0000 C   0  0  0  0  0  0  0  0  0  0  0  0
   -8.6824  -12.2094    0.0000 C   0  0  0  0  0  0  0  0  0  0  0  0
   -8.6951  -13.7139    0.0000 C   0  0  0  0  0  0  0  0  0  0  0  0
   -7.3900  -14.4754    0.0000 C   0  0  0  0  0  0  0  0  0  0  0  0
   -6.0886  -13.7310    0.0000 C   0  0  0  0  0  0  0  0  0  0  0  0
   -1.0558  -12.2779    0.0000 N   0  0  0  0  0  0  0  0  0  0  0  0
    0.2442  -11.5296    0.0000 C   0  0  0  0  0  0  0  0  0  0  0  0
    1.5422  -12.2812    0.0000 C   0  0  0  0  0  0  0  0  0  0  0  0
    0.2460  -10.0296    0.0000 O   0  0  0  0  0  0  0  0  0  0  0  0
    1.5403  -13.7812    0.0000 C   0  0  0  0  0  0  0  0  0  0  0  0
    2.8422  -11.5328    0.0000 N   0  0  0  0  0  0  0  0  0  0  0  0
    4.1403  -12.2843    0.0000 C   0  0  0  0  0  0  0  0  0  0  0  0
    5.4403  -11.5359    0.0000 C   0  0  0  0  0  0  0  0  0  0  0  0
    4.1383  -13.7843    0.0000 O   0  0  0  0  0  0  0  0  0  0  0  0
    6.7383  -12.2876    0.0000 C   0  0  0  0  0  0  0  0  0  0  0  0
    8.0383  -11.5392    0.0000 C   0  0  0  0  0  0  0  0  0  0  0  0
    9.3322  -12.2968    0.0000 C   0  0  0  0  0  0  0  0  0  0  0  0
   10.6314  -11.5496    0.0000 C   0  0  0  0  0  0  0  0  0  0  0  0
   10.6340  -10.0479    0.0000 C   0  0  0  0  0  0  0  0  0  0  0  0
    9.3267   -9.2968    0.0000 C   0  0  0  0  0  0  0  0  0  0  0  0
    8.0329  -10.0481    0.0000 C   0  0  0  0  0  0  0  0  0  0  0  0
   -9.9987  -14.4554    0.0000 O   0  0  0  0  0  0  0  0  0  0  0  0
  -10.0086  -15.9554    0.0000 C   0  0  0  0  0  0  0  0  0  0  0  0
 13 14  1  0  0  0  0
  6  7  2  0  0  0  0
 13 15  2  0  0  0  0
  2  3  2  0  0  0  0
 14 16  1  6  0  0  0
  7  8  1  0  0  0  0
 14 17  1  0  0  0  0
  3  4  1  0  0  0  0
 17 18  1  0  0  0  0
  8  9  2  0  0  0  0
 18 19  1  0  0  0  0
  4  5  1  0  0  0  0
 18 20  2  0  0  0  0
  9 10  1  0  0  0  0
 19 21  2  0  0  0  0
  5  1  2  0  0  0  0
 21 22  1  0  0  0  0
 10 11  2  0  0  0  0
 22 23  2  0  0  0  0
 11  6  1  0  0  0  0
 23 24  1  0  0  0  0
  1  2  1  0  0  0  0
 24 25  2  0  0  0  0
  5 12  1  0  0  0  0
 25 26  1  0  0  0  0
  3  6  1  0  0  0  0
 26 27  2  0  0  0  0
 27 22  1  0  0  0  0
 12 13  1  0  0  0  0
  9 28  1  0  0  0  0
 28 29  1  0  0  0  0
M  END
> <Value>
4.503070351926785

> <Relation>
=

> <SourceURI>
mol:CHEMBL443202

$$$$

Generated by Molecular Materials Informatics

 28 30  0  0  0  0  0  0  0  0999 V2000
   10.9037   -5.1045    0.0000 N   0  0  0  0  0  0  0  0  0  0  0  0
    9.4039   -5.0825    0.0000 N   0  0  0  0  0  0  0  0  0  0  0  0
    8.9196   -6.5021    0.0000 C   0  0  0  0  0  0  0  0  0  0  0  0
   10.1199   -7.4017    0.0000 S   0  0  0  0  0  0  0  0  0  0  0  0
   11.3463   -6.5377    0.0000 C   0  0  0  0  0  0  0  0  0  0  0  0
    7.6119   -7.2436    0.0000 C   0  0  0  0  0  0  0  0  0  0  0  0
    6.3170   -6.4763    0.0000 C   0  0  0  0  0  0  0  0  0  0  0  0
    5.0105   -7.2165    0.0000 C   0  0  0  0  0  0  0  0  0  0  0  0
    4.9978   -8.7210    0.0000 C   0  0  0  0  0  0  0  0  0  0  0  0
    6.3029   -9.4825    0.0000 C   0  0  0  0  0  0  0  0  0  0  0  0
    7.6043   -8.7381    0.0000 C   0  0  0  0  0  0  0  0  0  0  0  0
   12.6370   -7.2850    0.0000 N   0  0  0  0  0  0  0  0  0  0  0  0
   13.9370   -6.5367    0.0000 C   0  0  0  0  0  0  0  0  0  0  0  0
   15.2350   -7.2883    0.0000 C   0  0  0  0  0  0  0  0  0  0  0  0
   13.9388   -5.0367    0.0000 O   0  0  0  0  0  0  0  0  0  0  0  0
   15.2332   -8.7883    0.0000 C   0  0  0  0  0  0  0  0  0  0  0  0
   16.5350   -6.5399    0.0000 N   0  0  0  0  0  0  0  0  0  0  0  0
   17.8331   -7.2916    0.0000 C   0  0  0  0  0  0  0  0  0  0  0  0
   19.1331   -6.5430    0.0000 C   0  0  0  0  0  0  0  0  0  0  0  0
   17.8311   -8.7916    0.0000 O   0  0  0  0  0  0  0  0  0  0  0  0
   20.4311   -7.2947    0.0000 C   0  0  0  0  0  0  0  0  0  0  0  0
   21.7311   -6.5463    0.0000 C   0  0  0  0  0  0  0  0  0  0  0  0
   23.0249   -7.3039    0.0000 C   0  0  0  0  0  0  0  0  0  0  0  0
   24.3240   -6.5567    0.0000 C   0  0  0  0  0  0  0  0  0  0  0  0
   24.3267   -5.0550    0.0000 C   0  0  0  0  0  0  0  0  0  0  0  0
   23.0195   -4.3039    0.0000 C   0  0  0  0  0  0  0  0  0  0  0  0
   21.7257   -5.0554    0.0000 C   0  0  0  0  0  0  0  0  0  0  0  0
    3.6940   -9.4626    0.0000 C   0  0  0  0  0  0  0  0  0  0  0  0
 13 14  1  0  0  0  0
  6  7  2  0  0  0  0
 13 15  2  0  0  0  0
  2  3  2  0  0  0  0
 14 16  1  6  0  0  0
  7  8  1  0  0  0  0
 14 17  1  0  0  0  0
  3  4  1  0  0  0  0
 17 18  1  0  0  0  0
  8  9  2  0  0  0  0
 18 19  1  0  0  0  0
  4  5  1  0  0  0  0
 18 20  2  0  0  0  0
  9 10  1  0  0  0  0
 19 21  2  0  0  0  0
  5  1  2  0  0  0  0
 21 22  1  0  0  0  0
 10 11  2  0  0  0  0
 22 23  2  0  0  0  0
 11  6  1  0  0  0  0
 23 24  1  0  0  0  0
  1  2  1  0  0  0  0
 24 25  2  0  0  0  0
  5 12  1  0  0  0  0
 25 26  1  0  0  0  0
  3  6  1  0  0  0  0
 26 27  2  0  0  0  0
 27 22  1  0  0  0  0
 12 13  1  0  0  0  0
  9 28  1  0  0  0  0
M  END
> <Value>
3.685711339052502

> <Relation>
=

> <SourceURI>
mol:CHEMBL494467

$$$$

Generated by Molecular Materials Informatics

 30 32  0  0  0  0  0  0  0  0999 V2000
   -2.2090   -5.2896    0.0000 N   0  0  0  0  0  0  0  0  0  0  0  0
   -3.7086   -5.2676    0.0000 N   0  0  0  0  0  0  0  0  0  0  0  0
   -4.1934   -6.6871    0.0000 C   0  0  0  0  0  0  0  0  0  0  0  0
   -2.9926   -7.5867    0.0000 S   0  0  0  0  0  0  0  0  0  0  0  0
   -1.7666   -6.7229    0.0000 C   0  0  0  0  0  0  0  0  0  0  0  0
   -5.5006   -7.4285    0.0000 C   0  0  0  0  0  0  0  0  0  0  0  0
   -6.7956   -6.6615    0.0000 C   0  0  0  0  0  0  0  0  0  0  0  0
   -8.1023   -7.4015    0.0000 C   0  0  0  0  0  0  0  0  0  0  0  0
   -8.1148   -8.9060    0.0000 C   0  0  0  0  0  0  0  0  0  0  0  0
   -6.8099   -9.6676    0.0000 C   0  0  0  0  0  0  0  0  0  0  0  0
   -5.5086   -8.9231    0.0000 C   0  0  0  0  0  0  0  0  0  0  0  0
   -0.4757   -7.4702    0.0000 N   0  0  0  0  0  0  0  0  0  0  0  0
    0.8239   -6.7216    0.0000 C   0  0  0  0  0  0  0  0  0  0  0  0
    2.1221   -7.4733    0.0000 C   0  0  0  0  0  0  0  0  0  0  0  0
    0.8259   -5.2218    0.0000 O   0  0  0  0  0  0  0  0  0  0  0  0
    2.1205   -8.9733    0.0000 C   0  0  0  0  0  0  0  0  0  0  0  0
    3.4221   -6.7249    0.0000 N   0  0  0  0  0  0  0  0  0  0  0  0
    4.7201   -7.4765    0.0000 C   0  0  0  0  0  0  0  0  0  0  0  0
    6.0201   -6.7282    0.0000 C   0  0  0  0  0  0  0  0  0  0  0  0
    4.7183   -8.9766    0.0000 O   0  0  0  0  0  0  0  0  0  0  0  0
    7.3183   -7.4796    0.0000 C   0  0  0  0  0  0  0  0  0  0  0  0
    8.6183   -6.7313    0.0000 C   0  0  0  0  0  0  0  0  0  0  0  0
    9.9120   -7.4891    0.0000 C   0  0  0  0  0  0  0  0  0  0  0  0
   11.2111   -6.7420    0.0000 C   0  0  0  0  0  0  0  0  0  0  0  0
   11.2138   -5.2404    0.0000 C   0  0  0  0  0  0  0  0  0  0  0  0
    9.9065   -4.4889    0.0000 C   0  0  0  0  0  0  0  0  0  0  0  0
    8.6129   -5.2405    0.0000 C   0  0  0  0  0  0  0  0  0  0  0  0
   -9.4212   -9.6462    0.0000 N   0  3  0  0  0  0  0  0  0  0  0  0
   -9.4310  -11.1462    0.0000 O   0  0  0  0  0  0  0  0  0  0  0  0
  -10.7025   -8.8878    0.0000 O   0  5  0  0  0  0  0  0  0  0  0  0
  6  7  2  0  0  0  0
 13 15  2  0  0  0  0
  2  3  2  0  0  0  0
 14 16  1  6  0  0  0
  7  8  1  0  0  0  0
 14 17  1  0  0  0  0
  3  4  1  0  0  0  0
 17 18  1  0  0  0  0
  8  9  2  0  0  0  0
 18 19  1  0  0  0  0
  4  5  1  0  0  0  0
 18 20  2  0  0  0  0
  9 10  1  0  0  0  0
 19 21  2  0  0  0  0
  5  1  2  0  0  0  0
 21 22  1  0  0  0  0
 10 11  2  0  0  0  0
 22 23  2  0  0  0  0
 11  6  1  0  0  0  0
 23 24  1  0  0  0  0
  1  2  1  0  0  0  0
 24 25  2  0  0  0  0
  5 12  1  0  0  0  0
 25 26  1  0  0  0  0
  3  6  1  0  0  0  0
 26 27  2  0  0  0  0
 27 22  1  0  0  0  0
 12 13  1  0  0  0  0
 13 14  1  0  0  0  0
 28 29  2  0  0  0  0
 28 30  1  0  0  0  0
  9 28  1  0  0  0  0
M  CHG  2  28   1  30  -1
M  END
> <Value>
4.072116589669293

> <Relation>
=

> <SourceURI>
mol:CHEMBL523373

$$$$

Generated by Molecular Materials Informatics

 28 30  0  0  0  0  0  0  0  0999 V2000
    9.9503   -0.2004    0.0000 N   0  0  0  0  0  0  0  0  0  0  0  0
    8.4507   -0.1783    0.0000 N   0  0  0  0  0  0  0  0  0  0  0  0
    7.9660   -1.5979    0.0000 C   0  0  0  0  0  0  0  0  0  0  0  0
    9.1665   -2.4974    0.0000 S   0  0  0  0  0  0  0  0  0  0  0  0
   10.3927   -1.6335    0.0000 C   0  0  0  0  0  0  0  0  0  0  0  0
    6.6585   -2.3392    0.0000 C   0  0  0  0  0  0  0  0  0  0  0  0
    5.3636   -1.5721    0.0000 C   0  0  0  0  0  0  0  0  0  0  0  0
    4.0570   -2.3123    0.0000 C   0  0  0  0  0  0  0  0  0  0  0  0
    4.0445   -3.8170    0.0000 C   0  0  0  0  0  0  0  0  0  0  0  0
    5.3492   -4.5783    0.0000 C   0  0  0  0  0  0  0  0  0  0  0  0
    6.6507   -3.8339    0.0000 C   0  0  0  0  0  0  0  0  0  0  0  0
   11.6832   -2.3810    0.0000 N   0  0  0  0  0  0  0  0  0  0  0  0
   12.9832   -1.6326    0.0000 C   0  0  0  0  0  0  0  0  0  0  0  0
   14.2814   -2.3841    0.0000 C   0  0  0  0  0  0  0  0  0  0  0  0
   12.9851   -0.1326    0.0000 O   0  0  0  0  0  0  0  0  0  0  0  0
   14.2794   -3.8841    0.0000 C   0  0  0  0  0  0  0  0  0  0  0  0
   15.5814   -1.6357    0.0000 N   0  0  0  0  0  0  0  0  0  0  0  0
   16.8794   -2.3874    0.0000 C   0  0  0  0  0  0  0  0  0  0  0  0
   18.1794   -1.6390    0.0000 C   0  0  0  0  0  0  0  0  0  0  0  0
   16.8776   -3.8874    0.0000 O   0  0  0  0  0  0  0  0  0  0  0  0
   19.4775   -2.3905    0.0000 C   0  0  0  0  0  0  0  0  0  0  0  0
   20.7773   -1.6421    0.0000 C   0  0  0  0  0  0  0  0  0  0  0  0
   22.0713   -2.3997    0.0000 C   0  0  0  0  0  0  0  0  0  0  0  0
   23.3704   -1.6526    0.0000 C   0  0  0  0  0  0  0  0  0  0  0  0
   23.3729   -0.1510    0.0000 C   0  0  0  0  0  0  0  0  0  0  0  0
   22.0656    0.6003    0.0000 C   0  0  0  0  0  0  0  0  0  0  0  0
   20.7720   -0.1512    0.0000 C   0  0  0  0  0  0  0  0  0  0  0  0
    2.7405   -4.5583    0.0000 Br  0  0  0  0  0  0  0  0  0  0  0  0
 13 14  1  0  0  0  0
  6  7  2  0  0  0  0
 13 15  2  0  0  0  0
  2  3  2  0  0  0  0
 14 16  1  6  0  0  0
  7  8  1  0  0  0  0
 14 17  1  0  0  0  0
  3  4  1  0  0  0  0
 17 18  1  0  0  0  0
  8  9  2  0  0  0  0
 18 19  1  0  0  0  0
  4  5  1  0  0  0  0
 18 20  2  0  0  0  0
  9 10  1  0  0  0  0
 19 21  2  0  0  0  0
  5  1  2  0  0  0  0
 21 22  1  0  0  0  0
 10 11  2  0  0  0  0
 22 23  2  0  0  0  0
 11  6  1  0  0  0  0
 23 24  1  0  0  0  0
  1  2  1  0  0  0  0
 24 25  2  0  0  0  0
  5 12  1  0  0  0  0
 25 26  1  0  0  0  0
  3  6  1  0  0  0  0
 26 27  2  0  0  0  0
 27 22  1  0  0  0  0
 12 13  1  0  0  0  0
  9 28  1  0  0  0  0
M  END
> <Value>
3.939679971311715

> <Relation>
=

> <SourceURI>
mol:CHEMBL495491

$$$$

Generated by Molecular Materials Informatics

 28 30  0  0  0  0  0  0  0  0999 V2000
   -3.6206   -0.7320    0.0000 N   0  0  0  0  0  0  0  0  0  0  0  0
   -5.1204   -0.7100    0.0000 N   0  0  0  0  0  0  0  0  0  0  0  0
   -5.6049   -2.1295    0.0000 C   0  0  0  0  0  0  0  0  0  0  0  0
   -4.4044   -3.0291    0.0000 S   0  0  0  0  0  0  0  0  0  0  0  0
   -3.1782   -2.1651    0.0000 C   0  0  0  0  0  0  0  0  0  0  0  0
   -6.9126   -2.8709    0.0000 C   0  0  0  0  0  0  0  0  0  0  0  0
   -8.2073   -2.1038    0.0000 C   0  0  0  0  0  0  0  0  0  0  0  0
   -9.5138   -2.8440    0.0000 C   0  0  0  0  0  0  0  0  0  0  0  0
   -9.5264   -4.3486    0.0000 C   0  0  0  0  0  0  0  0  0  0  0  0
   -8.2217   -5.1098    0.0000 C   0  0  0  0  0  0  0  0  0  0  0  0
   -6.9204   -4.3655    0.0000 C   0  0  0  0  0  0  0  0  0  0  0  0
   -1.8877   -2.9126    0.0000 N   0  0  0  0  0  0  0  0  0  0  0  0
   -0.5877   -2.1642    0.0000 C   0  0  0  0  0  0  0  0  0  0  0  0
    0.7105   -2.9156    0.0000 C   0  0  0  0  0  0  0  0  0  0  0  0
   -0.5858   -0.6642    0.0000 O   0  0  0  0  0  0  0  0  0  0  0  0
    0.7085   -4.4156    0.0000 C   0  0  0  0  0  0  0  0  0  0  0  0
    2.0105   -2.1673    0.0000 N   0  0  0  0  0  0  0  0  0  0  0  0
    3.3085   -2.9189    0.0000 C   0  0  0  0  0  0  0  0  0  0  0  0
    4.6083   -2.1706    0.0000 C   0  0  0  0  0  0  0  0  0  0  0  0
    3.3067   -4.4189    0.0000 O   0  0  0  0  0  0  0  0  0  0  0  0
    5.9063   -2.9222    0.0000 C   0  0  0  0  0  0  0  0  0  0  0  0
    7.2063   -2.1738    0.0000 C   0  0  0  0  0  0  0  0  0  0  0  0
    8.5003   -2.9313    0.0000 C   0  0  0  0  0  0  0  0  0  0  0  0
    9.7992   -2.1842    0.0000 C   0  0  0  0  0  0  0  0  0  0  0  0
    9.8020   -0.6826    0.0000 C   0  0  0  0  0  0  0  0  0  0  0  0
    8.4947    0.0685    0.0000 C   0  0  0  0  0  0  0  0  0  0  0  0
    7.2009   -0.6827    0.0000 C   0  0  0  0  0  0  0  0  0  0  0  0
  -10.8304   -5.0900    0.0000 Cl  0  0  0  0  0  0  0  0  0  0  0  0
 13 14  1  0  0  0  0
  6  7  2  0  0  0  0
 13 15  2  0  0  0  0
  2  3  2  0  0  0  0
 14 16  1  6  0  0  0
  7  8  1  0  0  0  0
 14 17  1  0  0  0  0
  3  4  1  0  0  0  0
 17 18  1  0  0  0  0
  8  9  2  0  0  0  0
 18 19  1  0  0  0  0
  4  5  1  0  0  0  0
 18 20  2  0  0  0  0
  9 10  1  0  0  0  0
 19 21  2  0  0  0  0
  5  1  2  0  0  0  0
 21 22  1  0  0  0  0
 10 11  2  0  0  0  0
 22 23  2  0  0  0  0
 11  6  1  0  0  0  0
 23 24  1  0  0  0  0
  1  2  1  0  0  0  0
 24 25  2  0  0  0  0
  5 12  1  0  0  0  0
 25 26  1  0  0  0  0
  3  6  1  0  0  0  0
 26 27  2  0  0  0  0
 27 22  1  0  0  0  0
 12 13  1  0  0  0  0
  9 28  1  0  0  0  0
M  END
> <Value>
3.8164454663811385

> <Relation>
=

> <SourceURI>
mol:CHEMBL523056

$$$$

Generated by Molecular Materials Informatics

 28 30  0  0  0  0  0  0  0  0999 V2000
    9.4141    3.2096    0.0000 N   0  0  0  0  0  0  0  0  0  0  0  0
    7.9143    3.2318    0.0000 N   0  0  0  0  0  0  0  0  0  0  0  0
    7.4297    1.8120    0.0000 C   0  0  0  0  0  0  0  0  0  0  0  0
    8.6303    0.9125    0.0000 S   0  0  0  0  0  0  0  0  0  0  0  0
    9.8565    1.7764    0.0000 C   0  0  0  0  0  0  0  0  0  0  0  0
    6.1221    1.0707    0.0000 C   0  0  0  0  0  0  0  0  0  0  0  0
    4.8274    1.8378    0.0000 C   0  0  0  0  0  0  0  0  0  0  0  0
    3.5208    1.0976    0.0000 C   0  0  0  0  0  0  0  0  0  0  0  0
    3.5083   -0.4069    0.0000 C   0  0  0  0  0  0  0  0  0  0  0  0
    4.8130   -1.1684    0.0000 C   0  0  0  0  0  0  0  0  0  0  0  0
    6.1143   -0.4240    0.0000 C   0  0  0  0  0  0  0  0  0  0  0  0
   11.1470    1.0291    0.0000 N   0  0  0  0  0  0  0  0  0  0  0  0
   12.4470    1.7774    0.0000 C   0  0  0  0  0  0  0  0  0  0  0  0
   13.7452    1.0258    0.0000 C   0  0  0  0  0  0  0  0  0  0  0  0
   12.4489    3.2773    0.0000 O   0  0  0  0  0  0  0  0  0  0  0  0
   13.7432   -0.4742    0.0000 C   0  0  0  0  0  0  0  0  0  0  0  0
   15.0452    1.7742    0.0000 N   0  0  0  0  0  0  0  0  0  0  0  0
   16.3432    1.0225    0.0000 C   0  0  0  0  0  0  0  0  0  0  0  0
   17.6431    1.7709    0.0000 C   0  0  0  0  0  0  0  0  0  0  0  0
   16.3414   -0.4773    0.0000 O   0  0  0  0  0  0  0  0  0  0  0  0
   18.9411    1.0194    0.0000 C   0  0  0  0  0  0  0  0  0  0  0  0
   20.2411    1.7678    0.0000 C   0  0  0  0  0  0  0  0  0  0  0  0
   21.5351    1.0102    0.0000 C   0  0  0  0  0  0  0  0  0  0  0  0
   22.8340    1.7574    0.0000 C   0  0  0  0  0  0  0  0  0  0  0  0
   22.8367    3.2589    0.0000 C   0  0  0  0  0  0  0  0  0  0  0  0
   21.5295    4.0102    0.0000 C   0  0  0  0  0  0  0  0  0  0  0  0
   20.2356    3.2587    0.0000 C   0  0  0  0  0  0  0  0  0  0  0  0
    2.2043   -1.1484    0.0000 F   0  0  0  0  0  0  0  0  0  0  0  0
 13 14  1  0  0  0  0
  6  7  2  0  0  0  0
 13 15  2  0  0  0  0
  2  3  2  0  0  0  0
 14 16  1  6  0  0  0
  7  8  1  0  0  0  0
 14 17  1  0  0  0  0
  3  4  1  0  0  0  0
 17 18  1  0  0  0  0
  8  9  2  0  0  0  0
 18 19  1  0  0  0  0
  4  5  1  0  0  0  0
 18 20  2  0  0  0  0
  9 10  1  0  0  0  0
 19 21  2  0  0  0  0
  5  1  2  0  0  0  0
 21 22  1  0  0  0  0
 10 11  2  0  0  0  0
 22 23  2  0  0  0  0
 11  6  1  0  0  0  0
 23 24  1  0  0  0  0
  1  2  1  0  0  0  0
 24 25  2  0  0  0  0
  5 12  1  0  0  0  0
 25 26  1  0  0  0  0
  3  6  1  0  0  0  0
 26 27  2  0  0  0  0
 27 22  1  0  0  0  0
 12 13  1  0  0  0  0
  9 28  1  0  0  0  0
M  END
> <Value>
3.736600668665998

> <Relation>
=

> <SourceURI>
mol:CHEMBL495490

$$$$

Generated by Molecular Materials Informatics

 25 26  0  0  0  0  0  0  0  0999 V2000
   10.5995   -9.1680    0.0000 N   0  0  0  0  0  0  0  0  0  0  0  0
   11.8986   -8.4180    0.0000 C   0  0  0  0  0  0  0  0  0  0  0  0
   13.1975   -9.1680    0.0000 P   0  0  0  0  0  0  0  0  0  0  0  0
   14.4966   -8.4180    0.0000 C   0  0  0  0  0  0  0  0  0  0  0  0
   15.7956   -9.1680    0.0000 N   0  0  0  0  0  0  0  0  0  0  0  0
   14.4966   -6.9180    0.0000 S   0  0  0  0  0  0  0  0  0  0  0  0
   17.0947   -8.4180    0.0000 C   0  0  0  0  0  0  0  0  0  0  0  0
   13.1975  -10.6680    0.0000 O   0  0  0  0  0  0  0  0  0  0  0  0
   13.1828   -7.6604    0.0000 O   0  0  0  0  0  0  0  0  0  0  0  0
   11.8986   -6.9180    0.0000 C   0  0  0  0  0  0  0  0  0  0  0  0
   10.5995   -6.1680    0.0000 C   0  0  0  0  0  0  0  0  0  0  0  0
   10.5995   -4.6680    0.0000 C   0  0  0  0  0  0  0  0  0  0  0  0
   18.3936   -9.1680    0.0000 C   0  0  0  0  0  0  0  0  0  0  0  0
   18.3898  -10.6700    0.0000 C   0  0  0  0  0  0  0  0  0  0  0  0
   19.6873  -11.4198    0.0000 C   0  0  0  0  0  0  0  0  0  0  0  0
   20.9882  -10.6696    0.0000 C   0  0  0  0  0  0  0  0  0  0  0  0
   20.9834   -9.1620    0.0000 C   0  0  0  0  0  0  0  0  0  0  0  0
   19.6847   -8.4189    0.0000 C   0  0  0  0  0  0  0  0  0  0  0  0
   11.9028   -3.9215    0.0000 C   0  0  0  0  0  0  0  0  0  0  0  0
   11.9033   -2.4228    0.0000 C   0  0  0  0  0  0  0  0  0  0  0  0
   10.6033   -1.6713    0.0000 C   0  0  0  0  0  0  0  0  0  0  0  0
    9.3000   -2.4293    0.0000 C   0  0  0  0  0  0  0  0  0  0  0  0
    9.3059   -3.9255    0.0000 C   0  0  0  0  0  0  0  0  0  0  0  0
   22.2882  -11.4180    0.0000 O   0  0  0  0  0  0  0  0  0  0  0  0
   22.2902  -12.9180    0.0000 C   0  0  0  0  0  0  0  0  0  0  0  0
  7 13  1  0  0  0  0
  5  7  1  0  0  0  0
 13 14  2  0  0  0  0
  3  4  1  0  0  0  0
 14 15  1  0  0  0  0
  3  8  2  0  0  0  0
 15 16  2  0  0  0  0
 16 17  1  0  0  0  0
  3  9  1  0  0  0  0
 17 18  2  0  0  0  0
 18 13  1  0  0  0  0
  4  5  1  0  0  0  0
 12 19  2  0  0  0  0
  2 10  1  0  0  0  0
 19 20  1  0  0  0  0
  2  3  1  0  0  0  0
 20 21  2  0  0  0  0
 10 11  1  0  0  0  0
 21 22  1  0  0  0  0
  4  6  2  0  0  0  0
 22 23  2  0  0  0  0
 23 12  1  0  0  0  0
 11 12  1  0  0  0  0
 16 24  1  0  0  0  0
  1  2  1  0  0  0  0
 24 25  1  0  0  0  0
M  END
> <Value>
6.42021640338319

> <Relation>
=

> <SourceURI>
mol:CHEMBL462325

$$$$

Generated by Molecular Materials Informatics

 17 17  0  0  0  0  0  0  0  0999 V2000
    8.6311    2.0342    0.0000 N   0  0  0  0  0  0  0  0  0  0  0  0
    9.9302    2.7842    0.0000 C   0  0  0  0  0  0  0  0  0  0  0  0
   11.2290    2.0342    0.0000 P   0  0  0  0  0  0  0  0  0  0  0  0
   12.5281    2.7842    0.0000 C   0  0  0  0  0  0  0  0  0  0  0  0
   13.8271    2.0342    0.0000 N   0  0  0  0  0  0  0  0  0  0  0  0
   12.5281    4.2842    0.0000 S   0  0  0  0  0  0  0  0  0  0  0  0
   15.1262    2.7842    0.0000 C   0  0  0  0  0  0  0  0  0  0  0  0
   11.2290    0.5343    0.0000 O   0  0  0  0  0  0  0  0  0  0  0  0
   11.2143    3.5418    0.0000 O   0  0  0  0  0  0  0  0  0  0  0  0
    9.9302    4.2842    0.0000 C   0  0  0  0  0  0  0  0  0  0  0  0
   16.4251    2.0342    0.0000 C   0  0  0  0  0  0  0  0  0  0  0  0
   17.7241    2.7842    0.0000 C   0  0  0  0  0  0  0  0  0  0  0  0
   19.0277    2.0231    0.0000 C   0  0  0  0  0  0  0  0  0  0  0  0
   20.3257    2.7718    0.0000 C   0  0  0  0  0  0  0  0  0  0  0  0
   20.3266    4.2734    0.0000 C   0  0  0  0  0  0  0  0  0  0  0  0
   19.0184    5.0301    0.0000 C   0  0  0  0  0  0  0  0  0  0  0  0
   17.7258    4.2700    0.0000 C   0  0  0  0  0  0  0  0  0  0  0  0
  3  9  1  0  0  0  0
  4  5  1  0  0  0  0
  2 10  1  0  0  0  0
  2  3  1  0  0  0  0
  7 11  1  0  0  0  0
  4  6  2  0  0  0  0
 11 12  1  0  0  0  0
  1  2  1  0  0  0  0
 12 13  2  0  0  0  0
  5  7  1  0  0  0  0
 13 14  1  0  0  0  0
  3  4  1  0  0  0  0
 14 15  2  0  0  0  0
  3  8  2  0  0  0  0
 15 16  1  0  0  0  0
 16 17  2  0  0  0  0
 17 12  1  0  0  0  0
M  END
> <Value>
5.376750709602099

> <Relation>
=

> <SourceURI>
mol:CHEMBL462534

$$$$

Generated by Molecular Materials Informatics

 13 12  0  0  0  0  0  0  0  0999 V2000
   -5.9983    0.8250    0.0000 N   0  0  0  0  0  0  0  0  0  0  0  0
   -4.6993    1.5750    0.0000 C   0  0  0  0  0  0  0  0  0  0  0  0
   -3.4002    0.8250    0.0000 P   0  0  0  0  0  0  0  0  0  0  0  0
   -2.1013    1.5750    0.0000 C   0  0  0  0  0  0  0  0  0  0  0  0
   -0.8022    0.8250    0.0000 N   0  0  0  0  0  0  0  0  0  0  0  0
   -2.1013    3.0750    0.0000 S   0  0  0  0  0  0  0  0  0  0  0  0
    0.4968    1.5750    0.0000 C   0  0  0  0  0  0  0  0  0  0  0  0
   -3.4002   -0.6750    0.0000 O   0  0  0  0  0  0  0  0  0  0  0  0
   -3.4149    2.3326    0.0000 O   0  0  0  0  0  0  0  0  0  0  0  0
   -4.6993    3.0750    0.0000 C   0  0  0  0  0  0  0  0  0  0  0  0
   -5.9983    3.8250    0.0000 C   0  0  0  0  0  0  0  0  0  0  0  0
   -5.9983    5.3250    0.0000 C   0  0  0  0  0  0  0  0  0  0  0  0
   -7.2972    3.0750    0.0000 C   0  0  0  0  0  0  0  0  0  0  0  0
  5  7  1  0  0  0  0
  3  4  1  0  0  0  0
  3  8  2  0  0  0  0
  3  9  1  0  0  0  0
  4  5  1  0  0  0  0
  2 10  1  0  0  0  0
  2  3  1  0  0  0  0
 10 11  1  0  0  0  0
  4  6  2  0  0  0  0
 11 12  1  0  0  0  0
  1  2  1  0  0  0  0
 11 13  1  0  0  0  0
M  END
> <Value>
4.976336081802207

> <Relation>
=

> <SourceURI>
mol:CHEMBL451349

$$$$

Generated by Molecular Materials Informatics

 18 17  0  0  0  0  0  0  0  0999 V2000
   -0.1971    1.1333    0.0000 N   0  0  0  0  0  0  0  0  0  0  0  0
    1.1019    1.8833    0.0000 C   0  0  0  0  0  0  0  0  0  0  0  0
    2.4010    1.1333    0.0000 P   0  0  0  0  0  0  0  0  0  0  0  0
    3.6999    1.8833    0.0000 C   0  0  0  0  0  0  0  0  0  0  0  0
    4.9989    1.1333    0.0000 N   0  0  0  0  0  0  0  0  0  0  0  0
    3.6999    3.3833    0.0000 S   0  0  0  0  0  0  0  0  0  0  0  0
    6.2980    1.8833    0.0000 C   0  0  0  0  0  0  0  0  0  0  0  0
    2.4010   -0.3666    0.0000 O   0  0  0  0  0  0  0  0  0  0  0  0
    2.3863    2.6409    0.0000 O   0  0  0  0  0  0  0  0  0  0  0  0
    1.1019    3.3833    0.0000 C   0  0  0  0  0  0  0  0  0  0  0  0
   -0.1971    4.1333    0.0000 C   0  0  0  0  0  0  0  0  0  0  0  0
   -0.1971    5.6332    0.0000 C   0  0  0  0  0  0  0  0  0  0  0  0
   -1.4960    3.3833    0.0000 C   0  0  0  0  0  0  0  0  0  0  0  0
    7.5970    1.1333    0.0000 C   0  0  0  0  0  0  0  0  0  0  0  0
    8.8959    1.8833    0.0000 C   0  0  0  0  0  0  0  0  0  0  0  0
   10.1950    1.1333    0.0000 C   0  0  0  0  0  0  0  0  0  0  0  0
   11.4940    1.8833    0.0000 C   0  0  0  0  0  0  0  0  0  0  0  0
   12.7929    1.1333    0.0000 C   0  0  0  0  0  0  0  0  0  0  0  0
  4  5  1  0  0  0  0
  2 10  1  0  0  0  0
  2  3  1  0  0  0  0
 10 11  1  0  0  0  0
  4  6  2  0  0  0  0
 11 12  1  0  0  0  0
  1  2  1  0  0  0  0
 11 13  1  0  0  0  0
  5  7  1  0  0  0  0
  7 14  1  0  0  0  0
  3  4  1  0  0  0  0
 14 15  1  0  0  0  0
  3  8  2  0  0  0  0
 15 16  1  0  0  0  0
 16 17  1  0  0  0  0
  3  9  1  0  0  0  0
 17 18  1  0  0  0  0
M  END
> <Value>
6.301029995663981

> <Relation>
=

> <SourceURI>
mol:CHEMBL444558

$$$$

Generated by Molecular Materials Informatics

 21 21  0  0  0  0  0  0  0  0999 V2000
    1.4536  -19.4292    0.0000 N   0  0  0  0  0  0  0  0  0  0  0  0
    2.7525  -18.6792    0.0000 C   0  0  0  0  0  0  0  0  0  0  0  0
    4.0516  -19.4292    0.0000 P   0  0  0  0  0  0  0  0  0  0  0  0
    5.3507  -18.6792    0.0000 C   0  0  0  0  0  0  0  0  0  0  0  0
    6.6498  -19.4292    0.0000 N   0  0  0  0  0  0  0  0  0  0  0  0
    5.3507  -17.1792    0.0000 S   0  0  0  0  0  0  0  0  0  0  0  0
    7.9487  -18.6792    0.0000 C   0  0  0  0  0  0  0  0  0  0  0  0
    4.0516  -20.9292    0.0000 O   0  0  0  0  0  0  0  0  0  0  0  0
    4.0369  -17.9216    0.0000 O   0  0  0  0  0  0  0  0  0  0  0  0
    2.7525  -17.1792    0.0000 C   0  0  0  0  0  0  0  0  0  0  0  0
    9.2478  -19.4292    0.0000 C   0  0  0  0  0  0  0  0  0  0  0  0
    9.2439  -20.9310    0.0000 C   0  0  0  0  0  0  0  0  0  0  0  0
   10.5414  -21.6810    0.0000 C   0  0  0  0  0  0  0  0  0  0  0  0
   11.8423  -20.9308    0.0000 C   0  0  0  0  0  0  0  0  0  0  0  0
   11.8374  -19.4230    0.0000 C   0  0  0  0  0  0  0  0  0  0  0  0
   10.5389  -18.6801    0.0000 C   0  0  0  0  0  0  0  0  0  0  0  0
   13.1423  -21.6792    0.0000 O   0  0  0  0  0  0  0  0  0  0  0  0
   13.1443  -23.1792    0.0000 C   0  0  0  0  0  0  0  0  0  0  0  0
    1.4536  -16.4292    0.0000 C   0  0  0  0  0  0  0  0  0  0  0  0
    1.4536  -14.9292    0.0000 C   0  0  0  0  0  0  0  0  0  0  0  0
    0.1545  -14.1792    0.0000 C   0  0  0  0  0  0  0  0  0  0  0  0
  7 11  1  0  0  0  0
  4  6  2  0  0  0  0
 11 12  2  0  0  0  0
  1  2  1  0  0  0  0
 12 13  1  0  0  0  0
  5  7  1  0  0  0  0
 13 14  2  0  0  0  0
  3  4  1  0  0  0  0
 14 15  1  0  0  0  0
  3  8  2  0  0  0  0
 15 16  2  0  0  0  0
 16 11  1  0  0  0  0
 14 17  1  0  0  0  0
  3  9  1  0  0  0  0
 17 18  1  0  0  0  0
  4  5  1  0  0  0  0
 10 19  1  0  0  0  0
  2 10  1  0  0  0  0
 19 20  1  0  0  0  0
  2  3  1  0  0  0  0
 20 21  1  0  0  0  0
M  END
> <Value>
6.6020599913279625

> <Relation>
=

> <SourceURI>
mol:CHEMBL500851

$$$$

Generated by Molecular Materials Informatics

 20 20  0  0  0  0  0  0  0  0999 V2000
   -7.5059  -20.4020    0.0000 N   0  0  0  0  0  0  0  0  0  0  0  0
   -6.2069  -19.6520    0.0000 C   0  0  0  0  0  0  0  0  0  0  0  0
   -4.9078  -20.4020    0.0000 P   0  0  0  0  0  0  0  0  0  0  0  0
   -3.6089  -19.6520    0.0000 C   0  0  0  0  0  0  0  0  0  0  0  0
   -2.3098  -20.4020    0.0000 N   0  0  0  0  0  0  0  0  0  0  0  0
   -3.6089  -18.1521    0.0000 S   0  0  0  0  0  0  0  0  0  0  0  0
   -1.0108  -19.6520    0.0000 C   0  0  0  0  0  0  0  0  0  0  0  0
   -4.9078  -21.9020    0.0000 O   0  0  0  0  0  0  0  0  0  0  0  0
   -4.9225  -18.8946    0.0000 O   0  0  0  0  0  0  0  0  0  0  0  0
   -6.2069  -18.1521    0.0000 C   0  0  0  0  0  0  0  0  0  0  0  0
    0.2883  -20.4020    0.0000 C   0  0  0  0  0  0  0  0  0  0  0  0
    1.5872  -19.6520    0.0000 C   0  0  0  0  0  0  0  0  0  0  0  0
    2.8908  -20.4133    0.0000 C   0  0  0  0  0  0  0  0  0  0  0  0
    4.1890  -19.6646    0.0000 C   0  0  0  0  0  0  0  0  0  0  0  0
    4.1897  -18.1630    0.0000 C   0  0  0  0  0  0  0  0  0  0  0  0
    2.8815  -17.4133    0.0000 C   0  0  0  0  0  0  0  0  0  0  0  0
    1.5888  -18.1662    0.0000 C   0  0  0  0  0  0  0  0  0  0  0  0
   -7.5059  -17.4021    0.0000 C   0  0  0  0  0  0  0  0  0  0  0  0
   -7.5059  -15.9021    0.0000 C   0  0  0  0  0  0  0  0  0  0  0  0
   -8.8048  -15.1521    0.0000 C   0  0  0  0  0  0  0  0  0  0  0  0
  2  3  1  0  0  0  0
  7 11  1  0  0  0  0
  4  6  2  0  0  0  0
 11 12  1  0  0  0  0
  1  2  1  0  0  0  0
 12 13  2  0  0  0  0
  5  7  1  0  0  0  0
 13 14  1  0  0  0  0
  3  4  1  0  0  0  0
 14 15  2  0  0  0  0
  3  8  2  0  0  0  0
 15 16  1  0  0  0  0
 16 17  2  0  0  0  0
 17 12  1  0  0  0  0
  3  9  1  0  0  0  0
 10 18  1  0  0  0  0
  4  5  1  0  0  0  0
 18 19  1  0  0  0  0
  2 10  1  0  0  0  0
 19 20  1  0  0  0  0
M  END
> <Value>
6.136677139879544

> <Relation>
=

> <SourceURI>
mol:CHEMBL462324

$$$$

Generated by Molecular Materials Informatics

 17 16  0  0  0  0  0  0  0  0999 V2000
    7.8274  -24.2833    0.0000 N   0  0  0  0  0  0  0  0  0  0  0  0
    9.1264  -23.5333    0.0000 C   0  0  0  0  0  0  0  0  0  0  0  0
   10.4253  -24.2833    0.0000 P   0  0  0  0  0  0  0  0  0  0  0  0
   11.7243  -23.5333    0.0000 C   0  0  0  0  0  0  0  0  0  0  0  0
   13.0234  -24.2833    0.0000 N   0  0  0  0  0  0  0  0  0  0  0  0
   11.7243  -22.0333    0.0000 S   0  0  0  0  0  0  0  0  0  0  0  0
   14.3224  -23.5333    0.0000 C   0  0  0  0  0  0  0  0  0  0  0  0
   10.4253  -25.7832    0.0000 O   0  0  0  0  0  0  0  0  0  0  0  0
   10.4106  -22.7759    0.0000 O   0  0  0  0  0  0  0  0  0  0  0  0
    9.1264  -22.0333    0.0000 C   0  0  0  0  0  0  0  0  0  0  0  0
   10.4253  -21.2834    0.0000 C   0  0  0  0  0  0  0  0  0  0  0  0
    7.8274  -21.2834    0.0000 C   0  0  0  0  0  0  0  0  0  0  0  0
   15.6213  -24.2833    0.0000 C   0  0  0  0  0  0  0  0  0  0  0  0
   16.9204  -23.5333    0.0000 C   0  0  0  0  0  0  0  0  0  0  0  0
   18.2194  -24.2833    0.0000 C   0  0  0  0  0  0  0  0  0  0  0  0
   19.5183  -23.5333    0.0000 C   0  0  0  0  0  0  0  0  0  0  0  0
   20.8173  -24.2833    0.0000 C   0  0  0  0  0  0  0  0  0  0  0  0
  3  9  1  0  0  0  0
  4  5  1  0  0  0  0
  2 10  1  0  0  0  0
  2  3  1  0  0  0  0
 10 11  1  0  0  0  0
  4  6  2  0  0  0  0
 10 12  1  0  0  0  0
  1  2  1  0  0  0  0
  7 13  1  0  0  0  0
  5  7  1  0  0  0  0
 13 14  1  0  0  0  0
  3  4  1  0  0  0  0
 14 15  1  0  0  0  0
  3  8  2  0  0  0  0
 15 16  1  0  0  0  0
 16 17  1  0  0  0  0
M  END
> <Value>
5.928117992693875

> <Relation>
=

> <SourceURI>
mol:CHEMBL290419

$$$$

Generated by Molecular Materials Informatics

 15 14  0  0  0  0  0  0  0  0999 V2000
   -0.7626  -27.3125    0.0000 N   0  0  0  0  0  0  0  0  0  0  0  0
    0.5365  -26.5625    0.0000 C   0  0  0  0  0  0  0  0  0  0  0  0
    1.8356  -27.3125    0.0000 P   0  0  0  0  0  0  0  0  0  0  0  0
    3.1344  -26.5625    0.0000 C   0  0  0  0  0  0  0  0  0  0  0  0
    4.4335  -27.3125    0.0000 N   0  0  0  0  0  0  0  0  0  0  0  0
    3.1344  -25.0625    0.0000 S   0  0  0  0  0  0  0  0  0  0  0  0
    5.7325  -26.5625    0.0000 C   0  0  0  0  0  0  0  0  0  0  0  0
    1.8356  -28.8124    0.0000 O   0  0  0  0  0  0  0  0  0  0  0  0
    1.8208  -25.8049    0.0000 O   0  0  0  0  0  0  0  0  0  0  0  0
    0.5365  -25.0625    0.0000 C   0  0  0  0  0  0  0  0  0  0  0  0
    1.8356  -24.3126    0.0000 C   0  0  0  0  0  0  0  0  0  0  0  0
   -0.7626  -24.3126    0.0000 C   0  0  0  0  0  0  0  0  0  0  0  0
    7.0316  -27.3125    0.0000 C   0  0  0  0  0  0  0  0  0  0  0  0
    8.3305  -26.5625    0.0000 C   0  0  0  0  0  0  0  0  0  0  0  0
    7.0316  -28.8124    0.0000 C   0  0  0  0  0  0  0  0  0  0  0  0
  3  8  2  0  0  0  0
  3  9  1  0  0  0  0
  4  5  1  0  0  0  0
  2 10  1  0  0  0  0
  2  3  1  0  0  0  0
 10 11  1  0  0  0  0
  4  6  2  0  0  0  0
 10 12  1  0  0  0  0
  1  2  1  0  0  0  0
  7 13  1  0  0  0  0
  5  7  1  0  0  0  0
 13 14  1  0  0  0  0
  3  4  1  0  0  0  0
 13 15  1  0  0  0  0
M  END
> <Value>
5.721246399047171

> <Relation>
=

> <SourceURI>
mol:CHEMBL459660

$$$$

Generated by Molecular Materials Informatics

 20 20  0  0  0  0  0  0  0  0999 V2000
   -8.4595   -9.6437    0.0000 N   0  0  0  0  0  0  0  0  0  0  0  0
   -7.1604   -8.8938    0.0000 C   0  0  0  0  0  0  0  0  0  0  0  0
   -5.8614   -9.6437    0.0000 P   0  0  0  0  0  0  0  0  0  0  0  0
   -4.5625   -8.8938    0.0000 C   0  0  0  0  0  0  0  0  0  0  0  0
   -3.2635   -9.6437    0.0000 N   0  0  0  0  0  0  0  0  0  0  0  0
   -4.5625   -7.3938    0.0000 S   0  0  0  0  0  0  0  0  0  0  0  0
   -1.9644   -8.8938    0.0000 C   0  0  0  0  0  0  0  0  0  0  0  0
   -5.8614  -11.1437    0.0000 O   0  0  0  0  0  0  0  0  0  0  0  0
   -5.8761   -8.1361    0.0000 O   0  0  0  0  0  0  0  0  0  0  0  0
   -7.1604   -7.3938    0.0000 C   0  0  0  0  0  0  0  0  0  0  0  0
   -0.6654   -9.6437    0.0000 C   0  0  0  0  0  0  0  0  0  0  0  0
   -0.6692  -11.1457    0.0000 C   0  0  0  0  0  0  0  0  0  0  0  0
    0.6282  -11.8955    0.0000 C   0  0  0  0  0  0  0  0  0  0  0  0
    1.9289  -11.1453    0.0000 C   0  0  0  0  0  0  0  0  0  0  0  0
    1.9242   -9.6377    0.0000 C   0  0  0  0  0  0  0  0  0  0  0  0
    0.6257   -8.8947    0.0000 C   0  0  0  0  0  0  0  0  0  0  0  0
    3.2291  -11.8937    0.0000 O   0  0  0  0  0  0  0  0  0  0  0  0
    3.2311  -13.3936    0.0000 C   0  0  0  0  0  0  0  0  0  0  0  0
   -8.4595   -6.6438    0.0000 C   0  0  0  0  0  0  0  0  0  0  0  0
   -8.4595   -5.1439    0.0000 C   0  0  0  0  0  0  0  0  0  0  0  0
  2  3  1  0  0  0  0
  7 11  1  0  0  0  0
  4  6  2  0  0  0  0
 11 12  2  0  0  0  0
  1  2  1  0  0  0  0
 12 13  1  0  0  0  0
  5  7  1  0  0  0  0
 13 14  2  0  0  0  0
  3  4  1  0  0  0  0
 14 15  1  0  0  0  0
  3  8  2  0  0  0  0
 15 16  2  0  0  0  0
 16 11  1  0  0  0  0
 14 17  1  0  0  0  0
  3  9  1  0  0  0  0
 17 18  1  0  0  0  0
  4  5  1  0  0  0  0
 10 19  1  0  0  0  0
  2 10  1  0  0  0  0
 19 20  1  0  0  0  0
M  END
> <Value>
6.167491087293763

> <Relation>
=

> <SourceURI>
mol:CHEMBL462536

$$$$

Generated by Molecular Materials Informatics

 19 19  0  0  0  0  0  0  0  0999 V2000
    9.8186   -6.0667    0.0000 N   0  0  0  0  0  0  0  0  0  0  0  0
   11.1177   -5.3167    0.0000 C   0  0  0  0  0  0  0  0  0  0  0  0
   12.4165   -6.0667    0.0000 P   0  0  0  0  0  0  0  0  0  0  0  0
   13.7156   -5.3167    0.0000 C   0  0  0  0  0  0  0  0  0  0  0  0
   15.0146   -6.0667    0.0000 N   0  0  0  0  0  0  0  0  0  0  0  0
   13.7156   -3.8167    0.0000 S   0  0  0  0  0  0  0  0  0  0  0  0
   16.3137   -5.3167    0.0000 C   0  0  0  0  0  0  0  0  0  0  0  0
   12.4165   -7.5666    0.0000 O   0  0  0  0  0  0  0  0  0  0  0  0
   12.4018   -4.5591    0.0000 O   0  0  0  0  0  0  0  0  0  0  0  0
   11.1177   -3.8167    0.0000 C   0  0  0  0  0  0  0  0  0  0  0  0
   17.6126   -6.0667    0.0000 C   0  0  0  0  0  0  0  0  0  0  0  0
   18.9116   -5.3167    0.0000 C   0  0  0  0  0  0  0  0  0  0  0  0
   20.2152   -6.0777    0.0000 C   0  0  0  0  0  0  0  0  0  0  0  0
   21.5132   -5.3290    0.0000 C   0  0  0  0  0  0  0  0  0  0  0  0
   21.5141   -3.8274    0.0000 C   0  0  0  0  0  0  0  0  0  0  0  0
   20.2059   -3.0778    0.0000 C   0  0  0  0  0  0  0  0  0  0  0  0
   18.9133   -3.8309    0.0000 C   0  0  0  0  0  0  0  0  0  0  0  0
    9.8186   -3.0667    0.0000 C   0  0  0  0  0  0  0  0  0  0  0  0
    9.8186   -1.5668    0.0000 C   0  0  0  0  0  0  0  0  0  0  0  0
  2 10  1  0  0  0  0
  2  3  1  0  0  0  0
  7 11  1  0  0  0  0
  4  6  2  0  0  0  0
 11 12  1  0  0  0  0
  1  2  1  0  0  0  0
 12 13  2  0  0  0  0
  5  7  1  0  0  0  0
 13 14  1  0  0  0  0
  3  4  1  0  0  0  0
 14 15  2  0  0  0  0
  3  8  2  0  0  0  0
 15 16  1  0  0  0  0
 16 17  2  0  0  0  0
 17 12  1  0  0  0  0
  3  9  1  0  0  0  0
 10 18  1  0  0  0  0
  4  5  1  0  0  0  0
 18 19  1  0  0  0  0
M  END
> <Value>
5.642065152999546

> <Relation>
=

> <SourceURI>
mol:CHEMBL511878

$$$$

Generated by Molecular Materials Informatics

 18 18  0  0  0  0  0  0  0  0999 V2000
   -8.0637   -0.4583    0.0000 N   0  0  0  0  0  0  0  0  0  0  0  0
   -6.7648    0.2917    0.0000 C   0  0  0  0  0  0  0  0  0  0  0  0
   -5.4657   -0.4583    0.0000 P   0  0  0  0  0  0  0  0  0  0  0  0
   -4.1666    0.2917    0.0000 C   0  0  0  0  0  0  0  0  0  0  0  0
   -2.8675   -0.4583    0.0000 N   0  0  0  0  0  0  0  0  0  0  0  0
   -4.1666    1.7917    0.0000 S   0  0  0  0  0  0  0  0  0  0  0  0
   -1.5686    0.2917    0.0000 C   0  0  0  0  0  0  0  0  0  0  0  0
   -5.4657   -1.9583    0.0000 O   0  0  0  0  0  0  0  0  0  0  0  0
   -5.4804    1.0492    0.0000 O   0  0  0  0  0  0  0  0  0  0  0  0
   -6.7648    1.7917    0.0000 C   0  0  0  0  0  0  0  0  0  0  0  0
   -0.2695   -0.4583    0.0000 C   0  0  0  0  0  0  0  0  0  0  0  0
   -0.2734   -1.9603    0.0000 C   0  0  0  0  0  0  0  0  0  0  0  0
    1.0241   -2.7101    0.0000 C   0  0  0  0  0  0  0  0  0  0  0  0
    2.3250   -1.9601    0.0000 C   0  0  0  0  0  0  0  0  0  0  0  0
    2.3201   -0.4523    0.0000 C   0  0  0  0  0  0  0  0  0  0  0  0
    1.0216    0.2908    0.0000 C   0  0  0  0  0  0  0  0  0  0  0  0
    3.6250   -2.7083    0.0000 O   0  0  0  0  0  0  0  0  0  0  0  0
    3.6270   -4.2083    0.0000 C   0  0  0  0  0  0  0  0  0  0  0  0
  4  5  1  0  0  0  0
  2 10  1  0  0  0  0
  2  3  1  0  0  0  0
  7 11  1  0  0  0  0
  4  6  2  0  0  0  0
 11 12  2  0  0  0  0
  1  2  1  0  0  0  0
 12 13  1  0  0  0  0
  5  7  1  0  0  0  0
 13 14  2  0  0  0  0
  3  4  1  0  0  0  0
 14 15  1  0  0  0  0
  3  8  2  0  0  0  0
 15 16  2  0  0  0  0
 16 11  1  0  0  0  0
 14 17  1  0  0  0  0
  3  9  1  0  0  0  0
 17 18  1  0  0  0  0
M  END
> <Value>
5.950781977329818

> <Relation>
=

> <SourceURI>
mol:CHEMBL462535

$$$$

Generated by Molecular Materials Informatics

 25 26  0  0  0  0  0  0  0  0999 V2000
    0.3492  -15.7311    0.0000 C   0  0  0  0  0  0  0  0  0  0  0  0
    1.7768  -16.1922    0.0000 C   0  0  0  0  0  0  0  0  0  0  0  0
    2.6594  -14.9791    0.0000 N   0  0  0  0  0  0  0  0  0  0  0  0
    1.7734  -13.7630    0.0000 C   0  0  0  0  0  0  0  0  0  0  0  0
    0.3508  -14.2333    0.0000 C   0  0  0  0  0  0  0  0  0  0  0  0
    4.1594  -14.9786    0.0000 C   0  0  0  0  0  0  0  0  0  0  0  0
    4.9090  -13.6793    0.0000 C   0  0  0  0  0  0  0  0  0  0  0  0
    6.4090  -13.6789    0.0000 N   0  0  0  0  0  0  0  0  0  0  0  0
    4.1587  -12.3806    0.0000 O   0  0  0  0  0  0  0  0  0  0  0  0
    7.1594  -14.9777    0.0000 O   0  0  0  0  0  0  0  0  0  0  0  0
    2.2325  -12.3348    0.0000 O   0  0  0  0  0  0  0  0  0  0  0  0
    2.2410  -17.6186    0.0000 O   0  0  0  0  0  0  0  0  0  0  0  0
   -0.9488  -16.4830    0.0000 N   0  0  0  0  0  0  0  0  0  0  0  0
   -2.2488  -15.7348    0.0000 C   0  0  0  0  0  0  0  0  0  0  0  0
   -3.5468  -16.4866    0.0000 C   0  0  0  0  0  0  0  0  0  0  0  0
   -2.2508  -14.2348    0.0000 O   0  0  0  0  0  0  0  0  0  0  0  0
   -4.8468  -15.7384    0.0000 N   0  0  0  0  0  0  0  0  0  0  0  0
   -3.5446  -17.9866    0.0000 C   0  0  0  0  0  0  0  0  0  0  0  0
   -4.8426  -18.7384    0.0000 C   0  0  0  0  0  0  0  0  0  0  0  0
   -6.1421  -17.9875    0.0000 C   0  0  0  0  0  0  0  0  0  0  0  0
   -7.4392  -18.7380    0.0000 C   0  0  0  0  0  0  0  0  0  0  0  0
   -7.4379  -20.2397    0.0000 C   0  0  0  0  0  0  0  0  0  0  0  0
   -6.1286  -20.9875    0.0000 C   0  0  0  0  0  0  0  0  0  0  0  0
   -4.8368  -20.2326    0.0000 C   0  0  0  0  0  0  0  0  0  0  0  0
   -8.7348  -20.9931    0.0000 O   0  0  0  0  0  0  0  0  0  0  0  0
  3  6  1  0  0  0  0
  1 13  1  1  0  0  0
 13 14  1  0  0  0  0
  6  7  1  0  0  0  0
 15 14  1  0  0  0  0
  2  3  1  0  0  0  0
 14 16  2  0  0  0  0
  7  8  1  0  0  0  0
 15 17  1  6  0  0  0
  3  4  1  0  0  0  0
 15 18  1  0  0  0  0
  7  9  2  0  0  0  0
 18 19  1  0  0  0  0
  4  5  1  0  0  0  0
 19 20  2  0  0  0  0
  8 10  1  0  0  0  0
 20 21  1  0  0  0  0
  5  1  1  0  0  0  0
 21 22  2  0  0  0  0
  4 11  2  0  0  0  0
 22 23  1  0  0  0  0
  1  2  1  0  0  0  0
 23 24  2  0  0  0  0
 24 19  1  0  0  0  0
  2 12  2  0  0  0  0
 22 25  1  0  0  0  0
M  END
> <Value>
6.0

> <Relation>
=

> <SourceURI>
mol:CHEMBL1941149

$$$$

Generated by Molecular Materials Informatics

 20 20  0  0  0  0  0  0  0  0999 V2000
   -1.5609   -2.9884    0.0000 C   0  0  0  0  0  0  0  0  0  0  0  0
   -0.1332   -3.4495    0.0000 C   0  0  0  0  0  0  0  0  0  0  0  0
    0.7493   -2.2364    0.0000 N   0  0  0  0  0  0  0  0  0  0  0  0
   -0.1367   -1.0203    0.0000 C   0  0  0  0  0  0  0  0  0  0  0  0
   -1.5592   -1.4906    0.0000 C   0  0  0  0  0  0  0  0  0  0  0  0
    2.2493   -2.2359    0.0000 C   0  0  0  0  0  0  0  0  0  0  0  0
    2.9989   -0.9366    0.0000 C   0  0  0  0  0  0  0  0  0  0  0  0
    4.4989   -0.9363    0.0000 N   0  0  0  0  0  0  0  0  0  0  0  0
    2.2486    0.3621    0.0000 O   0  0  0  0  0  0  0  0  0  0  0  0
    5.2493   -2.2350    0.0000 O   0  0  0  0  0  0  0  0  0  0  0  0
    0.3224    0.4079    0.0000 O   0  0  0  0  0  0  0  0  0  0  0  0
    0.3309   -4.8759    0.0000 O   0  0  0  0  0  0  0  0  0  0  0  0
   -2.8589   -3.7403    0.0000 N   0  0  0  0  0  0  0  0  0  0  0  0
   -4.1589   -2.9921    0.0000 C   0  0  0  0  0  0  0  0  0  0  0  0
   -5.4569   -3.7439    0.0000 C   0  0  0  0  0  0  0  0  0  0  0  0
   -4.1609   -1.4921    0.0000 O   0  0  0  0  0  0  0  0  0  0  0  0
   -6.7569   -2.9957    0.0000 N   0  0  0  0  0  0  0  0  0  0  0  0
   -5.4547   -5.2439    0.0000 C   0  0  0  0  0  0  0  0  0  0  0  0
   -6.7527   -5.9957    0.0000 C   0  0  0  0  0  0  0  0  0  0  0  0
   -4.1547   -5.9921    0.0000 C   0  0  0  0  0  0  0  0  0  0  0  0
  8 10  1  0  0  0  0
  5  1  1  0  0  0  0
  4 11  2  0  0  0  0
  1  2  1  0  0  0  0
  2 12  2  0  0  0  0
  3  6  1  0  0  0  0
  1 13  1  1  0  0  0
 13 14  1  0  0  0  0
  6  7  1  0  0  0  0
 15 14  1  0  0  0  0
  2  3  1  0  0  0  0
 14 16  2  0  0  0  0
  7  8  1  0  0  0  0
 15 17  1  6  0  0  0
  3  4  1  0  0  0  0
 15 18  1  0  0  0  0
  7  9  2  0  0  0  0
 18 19  1  0  0  0  0
  4  5  1  0  0  0  0
 18 20  1  0  0  0  0
M  END
> <Value>
6.0

> <Relation>
=

> <SourceURI>
mol:CHEMBL1941143

$$$$

Generated by Molecular Materials Informatics

 18 18  0  0  0  0  0  0  0  0999 V2000
    9.1530    0.8091    0.0000 C   0  0  0  0  0  0  0  0  0  0  0  0
   10.5807    0.3480    0.0000 C   0  0  0  0  0  0  0  0  0  0  0  0
   11.4632    1.5611    0.0000 N   0  0  0  0  0  0  0  0  0  0  0  0
   10.5772    2.7773    0.0000 C   0  0  0  0  0  0  0  0  0  0  0  0
    9.1547    2.3070    0.0000 C   0  0  0  0  0  0  0  0  0  0  0  0
   12.9632    1.5615    0.0000 C   0  0  0  0  0  0  0  0  0  0  0  0
   13.7128    2.8608    0.0000 C   0  0  0  0  0  0  0  0  0  0  0  0
   15.2128    2.8613    0.0000 N   0  0  0  0  0  0  0  0  0  0  0  0
   12.9623    4.1597    0.0000 O   0  0  0  0  0  0  0  0  0  0  0  0
   15.9632    1.5624    0.0000 O   0  0  0  0  0  0  0  0  0  0  0  0
   11.0361    4.2053    0.0000 O   0  0  0  0  0  0  0  0  0  0  0  0
   11.0449   -1.0783    0.0000 O   0  0  0  0  0  0  0  0  0  0  0  0
    7.8550    0.0573    0.0000 N   0  0  0  0  0  0  0  0  0  0  0  0
    6.5551    0.8055    0.0000 C   0  0  0  0  0  0  0  0  0  0  0  0
    5.2571    0.0537    0.0000 C   0  0  0  0  0  0  0  0  0  0  0  0
    6.5529    2.3055    0.0000 O   0  0  0  0  0  0  0  0  0  0  0  0
    3.9569    0.8019    0.0000 N   0  0  0  0  0  0  0  0  0  0  0  0
    5.2591   -1.4463    0.0000 C   0  0  0  0  0  0  0  0  0  0  0  0
  7  9  2  0  0  0  0
  4  5  1  0  0  0  0
  8 10  1  0  0  0  0
  5  1  1  0  0  0  0
  4 11  2  0  0  0  0
  1  2  1  0  0  0  0
  2 12  2  0  0  0  0
  3  6  1  0  0  0  0
  1 13  1  1  0  0  0
 13 14  1  0  0  0  0
  6  7  1  0  0  0  0
 15 14  1  0  0  0  0
  2  3  1  0  0  0  0
 14 16  2  0  0  0  0
  7  8  1  0  0  0  0
 15 17  1  6  0  0  0
  3  4  1  0  0  0  0
 15 18  1  0  0  0  0
M  END
> <Value>
6.0

> <Relation>
=

> <SourceURI>
mol:CHEMBL1941142

$$$$

Generated by Molecular Materials Informatics

 17 17  0  0  0  0  0  0  0  0999 V2000
   -1.6674    0.7408    0.0000 C   0  0  0  0  0  0  0  0  0  0  0  0
   -0.2398    0.2797    0.0000 C   0  0  0  0  0  0  0  0  0  0  0  0
    0.6428    1.4928    0.0000 N   0  0  0  0  0  0  0  0  0  0  0  0
   -0.2432    2.7089    0.0000 C   0  0  0  0  0  0  0  0  0  0  0  0
   -1.6658    2.2386    0.0000 C   0  0  0  0  0  0  0  0  0  0  0  0
    2.1427    1.4931    0.0000 C   0  0  0  0  0  0  0  0  0  0  0  0
    2.8924    2.7924    0.0000 C   0  0  0  0  0  0  0  0  0  0  0  0
    4.3924    2.7929    0.0000 N   0  0  0  0  0  0  0  0  0  0  0  0
    2.1418    4.0913    0.0000 O   0  0  0  0  0  0  0  0  0  0  0  0
    5.1427    1.4940    0.0000 O   0  0  0  0  0  0  0  0  0  0  0  0
    0.2157    4.1369    0.0000 O   0  0  0  0  0  0  0  0  0  0  0  0
    0.2244   -1.1467    0.0000 O   0  0  0  0  0  0  0  0  0  0  0  0
   -2.9654   -0.0110    0.0000 N   0  0  0  0  0  0  0  0  0  0  0  0
   -4.2654    0.7371    0.0000 C   0  0  0  0  0  0  0  0  0  0  0  0
   -5.5634   -0.0147    0.0000 C   0  0  0  0  0  0  0  0  0  0  0  0
   -4.2676    2.2371    0.0000 O   0  0  0  0  0  0  0  0  0  0  0  0
   -6.8635    0.7335    0.0000 N   0  0  0  0  0  0  0  0  0  0  0  0
  3  4  1  0  0  0  0
  7  9  2  0  0  0  0
  4  5  1  0  0  0  0
  8 10  1  0  0  0  0
  5  1  1  0  0  0  0
  4 11  2  0  0  0  0
  1  2  1  0  0  0  0
  2 12  2  0  0  0  0
  3  6  1  0  0  0  0
  1 13  1  1  0  0  0
 13 14  1  0  0  0  0
  6  7  1  0  0  0  0
 14 15  1  0  0  0  0
  2  3  1  0  0  0  0
 14 16  2  0  0  0  0
  7  8  1  0  0  0  0
 15 17  1  0  0  0  0
M  END
> <Value>
6.0

> <Relation>
=

> <SourceURI>
mol:CHEMBL1941141

$$$$

Generated by Molecular Materials Informatics

 20 21  0  0  0  0  0  0  0  0999 V2000
   13.4445   -6.3234    0.0000 C   0  0  0  0  0  0  0  0  0  0  0  0
   14.8721   -6.7845    0.0000 C   0  0  0  0  0  0  0  0  0  0  0  0
   15.7547   -5.5712    0.0000 N   0  0  0  0  0  0  0  0  0  0  0  0
   14.8687   -4.3550    0.0000 C   0  0  0  0  0  0  0  0  0  0  0  0
   13.4461   -4.8254    0.0000 C   0  0  0  0  0  0  0  0  0  0  0  0
   17.2547   -5.5708    0.0000 C   0  0  0  0  0  0  0  0  0  0  0  0
   18.0043   -4.2715    0.0000 C   0  0  0  0  0  0  0  0  0  0  0  0
   19.5043   -4.2712    0.0000 N   0  0  0  0  0  0  0  0  0  0  0  0
   17.2537   -2.9728    0.0000 O   0  0  0  0  0  0  0  0  0  0  0  0
   20.2547   -5.5699    0.0000 O   0  0  0  0  0  0  0  0  0  0  0  0
   15.3276   -2.9270    0.0000 O   0  0  0  0  0  0  0  0  0  0  0  0
   15.3363   -8.2108    0.0000 O   0  0  0  0  0  0  0  0  0  0  0  0
   12.1465   -7.0752    0.0000 N   0  0  0  0  0  0  0  0  0  0  0  0
   10.8465   -6.3270    0.0000 C   0  0  0  0  0  0  0  0  0  0  0  0
    9.5485   -7.0786    0.0000 C   0  0  0  0  0  0  0  0  0  0  0  0
   10.8443   -4.8270    0.0000 O   0  0  0  0  0  0  0  0  0  0  0  0
    8.1803   -6.4799    0.0000 N   0  0  0  0  0  0  0  0  0  0  0  0
    7.1779   -7.5959    0.0000 C   0  0  0  0  0  0  0  0  0  0  0  0
    7.9298   -8.8939    0.0000 C   0  0  0  0  0  0  0  0  0  0  0  0
    9.3963   -8.5801    0.0000 C   0  0  0  0  0  0  0  0  0  0  0  0
  1 13  1  1  0  0  0
 13 14  1  0  0  0  0
  6  7  1  0  0  0  0
 15 14  1  6  0  0  0
  2  3  1  0  0  0  0
 14 16  2  0  0  0  0
  7  8  1  0  0  0  0
  3  4  1  0  0  0  0
  7  9  2  0  0  0  0
  4  5  1  0  0  0  0
  8 10  1  0  0  0  0
  5  1  1  0  0  0  0
 15 17  1  0  0  0  0
  4 11  2  0  0  0  0
  1  2  1  0  0  0  0
 17 18  1  0  0  0  0
 18 19  1  0  0  0  0
 19 20  1  0  0  0  0
 20 15  1  0  0  0  0
  2 12  2  0  0  0  0
  3  6  1  0  0  0  0
M  END
> <Value>
6.0

> <Relation>
=

> <SourceURI>
mol:CHEMBL1941148

$$$$

Generated by Molecular Materials Informatics

 22 22  0  0  0  0  0  0  0  0999 V2000
   -1.2927  -11.0818    0.0000 C   0  0  0  0  0  0  0  0  0  0  0  0
    0.1350  -11.5429    0.0000 C   0  0  0  0  0  0  0  0  0  0  0  0
    1.0175  -10.3298    0.0000 N   0  0  0  0  0  0  0  0  0  0  0  0
    0.1315   -9.1136    0.0000 C   0  0  0  0  0  0  0  0  0  0  0  0
   -1.2910   -9.5840    0.0000 C   0  0  0  0  0  0  0  0  0  0  0  0
    2.5175  -10.3292    0.0000 C   0  0  0  0  0  0  0  0  0  0  0  0
    3.2671   -9.0300    0.0000 C   0  0  0  0  0  0  0  0  0  0  0  0
    4.7671   -9.0296    0.0000 N   0  0  0  0  0  0  0  0  0  0  0  0
    2.5168   -7.7312    0.0000 O   0  0  0  0  0  0  0  0  0  0  0  0
    5.5175  -10.3283    0.0000 O   0  0  0  0  0  0  0  0  0  0  0  0
    0.5906   -7.6854    0.0000 O   0  0  0  0  0  0  0  0  0  0  0  0
    0.5991  -12.9692    0.0000 O   0  0  0  0  0  0  0  0  0  0  0  0
   -2.5907  -11.8336    0.0000 N   0  0  0  0  0  0  0  0  0  0  0  0
   -3.8907  -11.0854    0.0000 C   0  0  0  0  0  0  0  0  0  0  0  0
   -5.1887  -11.8372    0.0000 C   0  0  0  0  0  0  0  0  0  0  0  0
   -3.8927   -9.5854    0.0000 O   0  0  0  0  0  0  0  0  0  0  0  0
   -6.4887  -11.0891    0.0000 N   0  0  0  0  0  0  0  0  0  0  0  0
   -5.1865  -13.3372    0.0000 C   0  0  0  0  0  0  0  0  0  0  0  0
   -6.4845  -14.0891    0.0000 C   0  0  0  0  0  0  0  0  0  0  0  0
   -6.4825  -15.5891    0.0000 C   0  0  0  0  0  0  0  0  0  0  0  0
   -7.7805  -16.3409    0.0000 C   0  0  0  0  0  0  0  0  0  0  0  0
   -7.7783  -17.8409    0.0000 N   0  0  0  0  0  0  0  0  0  0  0  0
  4 11  2  0  0  0  0
  1  2  1  0  0  0  0
  2 12  2  0  0  0  0
  3  6  1  0  0  0  0
  1 13  1  1  0  0  0
 13 14  1  0  0  0  0
  6  7  1  0  0  0  0
 15 14  1  0  0  0  0
  2  3  1  0  0  0  0
 14 16  2  0  0  0  0
  7  8  1  0  0  0  0
 15 17  1  6  0  0  0
  3  4  1  0  0  0  0
 15 18  1  0  0  0  0
  7  9  2  0  0  0  0
 18 19  1  0  0  0  0
  4  5  1  0  0  0  0
 19 20  1  0  0  0  0
  8 10  1  0  0  0  0
 20 21  1  0  0  0  0
  5  1  1  0  0  0  0
 21 22  1  0  0  0  0
M  END
> <Value>
6.0

> <Relation>
=

> <SourceURI>
mol:CHEMBL1941147

$$$$

Generated by Molecular Materials Informatics

 24 25  0  0  0  0  0  0  0  0999 V2000
    9.8073   -6.9574    0.0000 C   0  0  0  0  0  0  0  0  0  0  0  0
   11.2350   -7.4185    0.0000 C   0  0  0  0  0  0  0  0  0  0  0  0
   12.1175   -6.2054    0.0000 N   0  0  0  0  0  0  0  0  0  0  0  0
   11.2315   -4.9892    0.0000 C   0  0  0  0  0  0  0  0  0  0  0  0
    9.8090   -5.4596    0.0000 C   0  0  0  0  0  0  0  0  0  0  0  0
   13.6175   -6.2049    0.0000 C   0  0  0  0  0  0  0  0  0  0  0  0
   14.3671   -4.9056    0.0000 C   0  0  0  0  0  0  0  0  0  0  0  0
   15.8671   -4.9052    0.0000 N   0  0  0  0  0  0  0  0  0  0  0  0
   13.6168   -3.6069    0.0000 O   0  0  0  0  0  0  0  0  0  0  0  0
   16.6175   -6.2039    0.0000 O   0  0  0  0  0  0  0  0  0  0  0  0
   11.6906   -3.5610    0.0000 O   0  0  0  0  0  0  0  0  0  0  0  0
   11.6991   -8.8449    0.0000 O   0  0  0  0  0  0  0  0  0  0  0  0
    8.5093   -7.7092    0.0000 N   0  0  0  0  0  0  0  0  0  0  0  0
    7.2093   -6.9610    0.0000 C   0  0  0  0  0  0  0  0  0  0  0  0
    5.9113   -7.7129    0.0000 C   0  0  0  0  0  0  0  0  0  0  0  0
    7.2073   -5.4610    0.0000 O   0  0  0  0  0  0  0  0  0  0  0  0
    4.6113   -6.9647    0.0000 N   0  0  0  0  0  0  0  0  0  0  0  0
    5.9135   -9.2129    0.0000 C   0  0  0  0  0  0  0  0  0  0  0  0
    4.6155   -9.9647    0.0000 C   0  0  0  0  0  0  0  0  0  0  0  0
    3.3161   -9.2138    0.0000 C   0  0  0  0  0  0  0  0  0  0  0  0
    2.0190   -9.9643    0.0000 C   0  0  0  0  0  0  0  0  0  0  0  0
    2.0202  -11.4659    0.0000 C   0  0  0  0  0  0  0  0  0  0  0  0
    3.3295  -12.2138    0.0000 C   0  0  0  0  0  0  0  0  0  0  0  0
    4.6213  -11.4589    0.0000 C   0  0  0  0  0  0  0  0  0  0  0  0
  2 12  2  0  0  0  0
  3  6  1  0  0  0  0
  1 13  1  1  0  0  0
 13 14  1  0  0  0  0
  6  7  1  0  0  0  0
 15 14  1  0  0  0  0
  2  3  1  0  0  0  0
 14 16  2  0  0  0  0
  7  8  1  0  0  0  0
 15 17  1  6  0  0  0
  3  4  1  0  0  0  0
 15 18  1  0  0  0  0
  7  9  2  0  0  0  0
 18 19  1  0  0  0  0
  4  5  1  0  0  0  0
 19 20  2  0  0  0  0
  8 10  1  0  0  0  0
 20 21  1  0  0  0  0
  5  1  1  0  0  0  0
 21 22  2  0  0  0  0
  4 11  2  0  0  0  0
 22 23  1  0  0  0  0
  1  2  1  0  0  0  0
 23 24  2  0  0  0  0
 24 19  1  0  0  0  0
M  END
> <Value>
6.0

> <Relation>
=

> <SourceURI>
mol:CHEMBL1941146

$$$$

Generated by Molecular Materials Informatics

 21 21  0  0  0  0  0  0  0  0999 V2000
   -1.0229    0.5555    0.0000 C   0  0  0  0  0  0  0  0  0  0  0  0
    0.4045    0.0944    0.0000 C   0  0  0  0  0  0  0  0  0  0  0  0
    1.2871    1.3075    0.0000 N   0  0  0  0  0  0  0  0  0  0  0  0
    0.4011    2.5236    0.0000 C   0  0  0  0  0  0  0  0  0  0  0  0
   -1.0213    2.0533    0.0000 C   0  0  0  0  0  0  0  0  0  0  0  0
    2.7871    1.3080    0.0000 C   0  0  0  0  0  0  0  0  0  0  0  0
    3.5367    2.6073    0.0000 C   0  0  0  0  0  0  0  0  0  0  0  0
    5.0367    2.6076    0.0000 N   0  0  0  0  0  0  0  0  0  0  0  0
    2.7862    3.9060    0.0000 O   0  0  0  0  0  0  0  0  0  0  0  0
    5.7871    1.3089    0.0000 O   0  0  0  0  0  0  0  0  0  0  0  0
    0.8600    3.9518    0.0000 O   0  0  0  0  0  0  0  0  0  0  0  0
    0.8687   -1.3320    0.0000 O   0  0  0  0  0  0  0  0  0  0  0  0
   -2.3209   -0.1964    0.0000 N   0  0  0  0  0  0  0  0  0  0  0  0
   -3.6209    0.5518    0.0000 C   0  0  0  0  0  0  0  0  0  0  0  0
   -4.9189   -0.2000    0.0000 C   0  0  0  0  0  0  0  0  0  0  0  0
   -3.6231    2.0518    0.0000 O   0  0  0  0  0  0  0  0  0  0  0  0
   -6.2191    0.5482    0.0000 N   0  0  0  0  0  0  0  0  0  0  0  0
   -4.9169   -1.7000    0.0000 C   0  0  0  0  0  0  0  0  0  0  0  0
   -6.2149   -2.4518    0.0000 C   0  0  0  0  0  0  0  0  0  0  0  0
   -6.2127   -3.9518    0.0000 C   0  0  0  0  0  0  0  0  0  0  0  0
   -3.6167   -2.4482    0.0000 C   0  0  0  0  0  0  0  0  0  0  0  0
  5  1  1  0  0  0  0
  4 11  2  0  0  0  0
  1  2  1  0  0  0  0
  2 12  2  0  0  0  0
  3  6  1  0  0  0  0
  1 13  1  1  0  0  0
 13 14  1  0  0  0  0
  6  7  1  0  0  0  0
 14 15  1  0  0  0  0
  2  3  1  0  0  0  0
 14 16  2  0  0  0  0
  7  8  1  0  0  0  0
 15 17  1  6  0  0  0
  3  4  1  0  0  0  0
 15 18  1  0  0  0  0
  7  9  2  0  0  0  0
 18 19  1  0  0  0  0
  4  5  1  0  0  0  0
 19 20  1  0  0  0  0
  8 10  1  0  0  0  0
 18 21  1  6  0  0  0
M  END
> <Value>
6.0

> <Relation>
=

> <SourceURI>
mol:CHEMBL1941145

$$$$

Generated by Molecular Materials Informatics

 21 21  0  0  0  0  0  0  0  0999 V2000
    9.6151   -2.7802    0.0000 C   0  0  0  0  0  0  0  0  0  0  0  0
   11.0428   -3.2413    0.0000 C   0  0  0  0  0  0  0  0  0  0  0  0
   11.9253   -2.0280    0.0000 N   0  0  0  0  0  0  0  0  0  0  0  0
   11.0393   -0.8118    0.0000 C   0  0  0  0  0  0  0  0  0  0  0  0
    9.6168   -1.2822    0.0000 C   0  0  0  0  0  0  0  0  0  0  0  0
   13.4253   -2.0276    0.0000 C   0  0  0  0  0  0  0  0  0  0  0  0
   14.1749   -0.7284    0.0000 C   0  0  0  0  0  0  0  0  0  0  0  0
   15.6749   -0.7280    0.0000 N   0  0  0  0  0  0  0  0  0  0  0  0
   13.4246    0.5704    0.0000 O   0  0  0  0  0  0  0  0  0  0  0  0
   16.4253   -2.0267    0.0000 O   0  0  0  0  0  0  0  0  0  0  0  0
   11.4984    0.6162    0.0000 O   0  0  0  0  0  0  0  0  0  0  0  0
   11.5069   -4.6676    0.0000 O   0  0  0  0  0  0  0  0  0  0  0  0
    8.3171   -3.5320    0.0000 N   0  0  0  0  0  0  0  0  0  0  0  0
    7.0171   -2.7838    0.0000 C   0  0  0  0  0  0  0  0  0  0  0  0
    5.7191   -3.5355    0.0000 C   0  0  0  0  0  0  0  0  0  0  0  0
    7.0151   -1.2838    0.0000 O   0  0  0  0  0  0  0  0  0  0  0  0
    4.4191   -2.7873    0.0000 N   0  0  0  0  0  0  0  0  0  0  0  0
    5.7213   -5.0355    0.0000 C   0  0  0  0  0  0  0  0  0  0  0  0
    4.4233   -5.7873    0.0000 C   0  0  0  0  0  0  0  0  0  0  0  0
    3.1231   -5.0391    0.0000 C   0  0  0  0  0  0  0  0  0  0  0  0
    4.4253   -7.2873    0.0000 C   0  0  0  0  0  0  0  0  0  0  0  0
  5  1  1  0  0  0  0
  4 11  2  0  0  0  0
  1  2  1  0  0  0  0
  2 12  2  0  0  0  0
  3  6  1  0  0  0  0
  1 13  1  1  0  0  0
 13 14  1  0  0  0  0
  6  7  1  0  0  0  0
 15 14  1  0  0  0  0
  2  3  1  0  0  0  0
 14 16  2  0  0  0  0
  7  8  1  0  0  0  0
 15 17  1  6  0  0  0
  3  4  1  0  0  0  0
 15 18  1  0  0  0  0
  7  9  2  0  0  0  0
 18 19  1  0  0  0  0
  4  5  1  0  0  0  0
 19 20  1  0  0  0  0
  8 10  1  0  0  0  0
 19 21  1  0  0  0  0
M  END
> <Value>
6.0

> <Relation>
=

> <SourceURI>
mol:CHEMBL1941144

$$$$

Generated by Molecular Materials Informatics

 31 32  0  0  0  0  0  0  0  0999 V2000
   -7.1389   -0.1903    0.0000 C   0  0  0  0  0  0  0  0  0  0  0  0
   -7.1411   -1.6947    0.0000 C   0  0  0  0  0  0  0  0  0  0  0  0
   -5.8415   -2.4454    0.0000 C   0  0  0  0  0  0  0  0  0  0  0  0
   -4.5387   -1.6938    0.0000 C   0  0  0  0  0  0  0  0  0  0  0  0
   -4.5440   -0.1838    0.0000 C   0  0  0  0  0  0  0  0  0  0  0  0
   -5.8448    0.5600    0.0000 C   0  0  0  0  0  0  0  0  0  0  0  0
   -8.4382    0.5593    0.0000 O   0  0  0  0  0  0  0  0  0  0  0  0
   -8.4408   -2.4438    0.0000 O   0  0  0  0  0  0  0  0  0  0  0  0
   -9.7371   -0.1911    0.0000 C   0  0  0  0  0  0  0  0  0  0  0  0
   -3.2478    0.5711    0.0000 C   0  0  0  0  0  0  0  0  0  0  0  0
   -1.9460   -0.1740    0.0000 C   0  0  0  0  0  0  0  0  0  0  0  0
   -0.6498    0.5810    0.0000 C   0  0  0  0  0  0  0  0  0  0  0  0
    0.6522   -0.1641    0.0000 N   0  0  0  0  0  0  0  0  0  0  0  0
   -0.6555    2.0810    0.0000 O   0  0  0  0  0  0  0  0  0  0  0  0
    1.9484    0.5906    0.0000 C   0  0  0  0  0  0  0  0  0  0  0  0
    3.2502   -0.1545    0.0000 C   0  0  0  0  0  0  0  0  0  0  0  0
    1.9427    2.0906    0.0000 C   0  0  0  0  0  0  0  0  0  0  0  0
    3.2558   -1.6545    0.0000 O   0  0  0  0  0  0  0  0  0  0  0  0
    4.5464    0.6004    0.0000 N   0  0  0  0  0  0  0  0  0  0  0  0
    3.2389    2.8455    0.0000 C   0  0  0  0  0  0  0  0  0  0  0  0
    3.2333    4.3455    0.0000 C   0  0  0  0  0  0  0  0  0  0  0  0
    4.5295    5.1004    0.0000 O   0  0  0  0  0  0  0  0  0  0  0  0
    1.9313    5.0906    0.0000 O   0  0  0  0  0  0  0  0  0  0  0  0
    5.8482   -0.1447    0.0000 C   0  0  0  0  0  0  0  0  0  0  0  0
    5.8491   -1.6394    0.0000 C   0  0  0  0  0  0  0  0  0  0  0  0
    7.1495   -2.3843    0.0000 C   0  0  0  0  0  0  0  0  0  0  0  0
    8.4475   -1.6294    0.0000 C   0  0  0  0  0  0  0  0  0  0  0  0
    8.4370   -0.1216    0.0000 C   0  0  0  0  0  0  0  0  0  0  0  0
    7.1355    0.6166    0.0000 C   0  0  0  0  0  0  0  0  0  0  0  0
    9.7502   -2.3727    0.0000 C   0  0  0  0  0  0  0  0  0  0  0  0
   -9.7391   -1.6927    0.0000 C   0  0  0  0  0  0  0  0  0  0  0  0
  3  4  2  0  0  0  0
 15 16  1  0  0  0  0
  2  8  1  0  0  0  0
 15 17  1  1  0  0  0
 16 18  2  0  0  0  0
  7  9  1  0  0  0  0
 16 19  1  0  0  0  0
  4  5  1  0  0  0  0
 17 20  1  0  0  0  0
  5 10  1  0  0  0  0
 20 21  1  0  0  0  0
  2  3  1  0  0  0  0
 21 22  1  0  0  0  0
 10 11  2  0  0  0  0
 21 23  2  0  0  0  0
  5  6  2  0  0  0  0
 19 24  1  0  0  0  0
 11 12  1  0  0  0  0
 24 25  2  0  0  0  0
  6  1  1  0  0  0  0
 25 26  1  0  0  0  0
 12 13  1  0  0  0  0
 26 27  2  0  0  0  0
  1  2  2  0  0  0  0
 27 28  1  0  0  0  0
 12 14  2  0  0  0  0
 28 29  2  0  0  0  0
 29 24  1  0  0  0  0
  1  7  1  0  0  0  0
 27 30  1  0  0  0  0
 15 13  1  0  0  0  0
  8 31  1  0  0  0  0
M  END
> <Value>
4.684029654543083

> <Relation>
=

> <SourceURI>
mol:CHEMBL478078

$$$$

Generated by Molecular Materials Informatics

 31 32  0  0  0  0  0  0  0  0999 V2000
    5.5319    0.0930    0.0000 C   0  0  0  0  0  0  0  0  0  0  0  0
    5.5297   -1.4114    0.0000 C   0  0  0  0  0  0  0  0  0  0  0  0
    6.8293   -2.1621    0.0000 C   0  0  0  0  0  0  0  0  0  0  0  0
    8.1321   -1.4105    0.0000 C   0  0  0  0  0  0  0  0  0  0  0  0
    8.1268    0.0995    0.0000 C   0  0  0  0  0  0  0  0  0  0  0  0
    6.8260    0.8435    0.0000 C   0  0  0  0  0  0  0  0  0  0  0  0
    4.2326    0.8426    0.0000 O   0  0  0  0  0  0  0  0  0  0  0  0
    4.2300   -2.1603    0.0000 O   0  0  0  0  0  0  0  0  0  0  0  0
    2.9337    0.0922    0.0000 C   0  0  0  0  0  0  0  0  0  0  0  0
    9.4230    0.8544    0.0000 C   0  0  0  0  0  0  0  0  0  0  0  0
   10.7250    0.1093    0.0000 C   0  0  0  0  0  0  0  0  0  0  0  0
   12.0212    0.8643    0.0000 C   0  0  0  0  0  0  0  0  0  0  0  0
   13.3230    0.1192    0.0000 N   0  0  0  0  0  0  0  0  0  0  0  0
   12.0155    2.3643    0.0000 O   0  0  0  0  0  0  0  0  0  0  0  0
   14.6192    0.8741    0.0000 C   0  0  0  0  0  0  0  0  0  0  0  0
   15.9210    0.1290    0.0000 C   0  0  0  0  0  0  0  0  0  0  0  0
   14.6135    2.3741    0.0000 C   0  0  0  0  0  0  0  0  0  0  0  0
   15.9266   -1.3710    0.0000 O   0  0  0  0  0  0  0  0  0  0  0  0
   17.2172    0.8839    0.0000 N   0  0  0  0  0  0  0  0  0  0  0  0
   15.9097    3.1290    0.0000 C   0  0  0  0  0  0  0  0  0  0  0  0
   15.9041    4.6290    0.0000 C   0  0  0  0  0  0  0  0  0  0  0  0
   17.2003    5.3837    0.0000 O   0  0  0  0  0  0  0  0  0  0  0  0
   14.6023    5.3741    0.0000 O   0  0  0  0  0  0  0  0  0  0  0  0
   18.5192    0.1388    0.0000 C   0  0  0  0  0  0  0  0  0  0  0  0
   18.5199   -1.3561    0.0000 C   0  0  0  0  0  0  0  0  0  0  0  0
   19.8203   -2.1010    0.0000 C   0  0  0  0  0  0  0  0  0  0  0  0
   21.1183   -1.3461    0.0000 C   0  0  0  0  0  0  0  0  0  0  0  0
   21.1078    0.1617    0.0000 C   0  0  0  0  0  0  0  0  0  0  0  0
   19.8065    0.8999    0.0000 C   0  0  0  0  0  0  0  0  0  0  0  0
   22.4210   -2.0894    0.0000 F   0  0  0  0  0  0  0  0  0  0  0  0
    2.9317   -1.4094    0.0000 C   0  0  0  0  0  0  0  0  0  0  0  0
  3  4  2  0  0  0  0
 15 16  1  0  0  0  0
  2  8  1  0  0  0  0
 15 17  1  1  0  0  0
 16 18  2  0  0  0  0
  7  9  1  0  0  0  0
 16 19  1  0  0  0  0
  4  5  1  0  0  0  0
 17 20  1  0  0  0  0
  5 10  1  0  0  0  0
 20 21  1  0  0  0  0
  2  3  1  0  0  0  0
 21 22  1  0  0  0  0
 10 11  2  0  0  0  0
 21 23  2  0  0  0  0
  5  6  2  0  0  0  0
 19 24  1  0  0  0  0
 11 12  1  0  0  0  0
 24 25  2  0  0  0  0
  6  1  1  0  0  0  0
 25 26  1  0  0  0  0
 12 13  1  0  0  0  0
 26 27  2  0  0  0  0
  1  2  2  0  0  0  0
 27 28  1  0  0  0  0
 12 14  2  0  0  0  0
 28 29  2  0  0  0  0
 29 24  1  0  0  0  0
  1  7  1  0  0  0  0
 27 30  1  0  0  0  0
 15 13  1  0  0  0  0
  8 31  1  0  0  0  0
M  END
> <Value>
4.6307841425898575

> <Relation>
=

> <SourceURI>
mol:CHEMBL478079

$$$$

Generated by Molecular Materials Informatics

 31 32  0  0  0  0  0  0  0  0999 V2000
   -7.2931   -4.9363    0.0000 C   0  0  0  0  0  0  0  0  0  0  0  0
   -7.2953   -6.4407    0.0000 C   0  0  0  0  0  0  0  0  0  0  0  0
   -5.9957   -7.1912    0.0000 C   0  0  0  0  0  0  0  0  0  0  0  0
   -4.6929   -6.4398    0.0000 C   0  0  0  0  0  0  0  0  0  0  0  0
   -4.6982   -4.9296    0.0000 C   0  0  0  0  0  0  0  0  0  0  0  0
   -5.9990   -4.1858    0.0000 C   0  0  0  0  0  0  0  0  0  0  0  0
   -8.5924   -4.1867    0.0000 O   0  0  0  0  0  0  0  0  0  0  0  0
   -8.5950   -7.1896    0.0000 O   0  0  0  0  0  0  0  0  0  0  0  0
   -9.8913   -4.9369    0.0000 C   0  0  0  0  0  0  0  0  0  0  0  0
   -3.4020   -4.1748    0.0000 C   0  0  0  0  0  0  0  0  0  0  0  0
   -2.1000   -4.9199    0.0000 C   0  0  0  0  0  0  0  0  0  0  0  0
   -0.8038   -4.1650    0.0000 C   0  0  0  0  0  0  0  0  0  0  0  0
    0.4980   -4.9101    0.0000 N   0  0  0  0  0  0  0  0  0  0  0  0
   -0.8095   -2.6650    0.0000 O   0  0  0  0  0  0  0  0  0  0  0  0
    1.7942   -4.1552    0.0000 C   0  0  0  0  0  0  0  0  0  0  0  0
    3.0960   -4.9003    0.0000 C   0  0  0  0  0  0  0  0  0  0  0  0
    1.7885   -2.6552    0.0000 C   0  0  0  0  0  0  0  0  0  0  0  0
    3.1016   -6.4003    0.0000 O   0  0  0  0  0  0  0  0  0  0  0  0
    4.3922   -4.1454    0.0000 N   0  0  0  0  0  0  0  0  0  0  0  0
    3.0847   -1.9003    0.0000 C   0  0  0  0  0  0  0  0  0  0  0  0
    3.0791   -0.4003    0.0000 C   0  0  0  0  0  0  0  0  0  0  0  0
    4.3753    0.3546    0.0000 O   0  0  0  0  0  0  0  0  0  0  0  0
    1.7773    0.3448    0.0000 O   0  0  0  0  0  0  0  0  0  0  0  0
    5.6942   -4.8905    0.0000 C   0  0  0  0  0  0  0  0  0  0  0  0
    5.6949   -6.3852    0.0000 C   0  0  0  0  0  0  0  0  0  0  0  0
    6.9953   -7.1303    0.0000 C   0  0  0  0  0  0  0  0  0  0  0  0
    8.2933   -6.3752    0.0000 C   0  0  0  0  0  0  0  0  0  0  0  0
    8.2828   -4.8676    0.0000 C   0  0  0  0  0  0  0  0  0  0  0  0
    6.9815   -4.1294    0.0000 C   0  0  0  0  0  0  0  0  0  0  0  0
    9.5960   -7.1187    0.0000 Cl  0  0  0  0  0  0  0  0  0  0  0  0
   -9.8933   -6.4385    0.0000 C   0  0  0  0  0  0  0  0  0  0  0  0
  3  4  2  0  0  0  0
 15 16  1  0  0  0  0
  2  8  1  0  0  0  0
 15 17  1  1  0  0  0
 16 18  2  0  0  0  0
  7  9  1  0  0  0  0
 16 19  1  0  0  0  0
  4  5  1  0  0  0  0
 17 20  1  0  0  0  0
  5 10  1  0  0  0  0
 20 21  1  0  0  0  0
  2  3  1  0  0  0  0
 21 22  1  0  0  0  0
 10 11  2  0  0  0  0
 21 23  2  0  0  0  0
  5  6  2  0  0  0  0
 19 24  1  0  0  0  0
 11 12  1  0  0  0  0
 24 25  2  0  0  0  0
  6  1  1  0  0  0  0
 25 26  1  0  0  0  0
 12 13  1  0  0  0  0
 26 27  2  0  0  0  0
  1  2  2  0  0  0  0
 27 28  1  0  0  0  0
 12 14  2  0  0  0  0
 28 29  2  0  0  0  0
 29 24  1  0  0  0  0
  1  7  1  0  0  0  0
 27 30  1  0  0  0  0
 15 13  1  0  0  0  0
  8 31  1  0  0  0  0
M  END
> <Value>
4.462180904926726

> <Relation>
=

> <SourceURI>
mol:CHEMBL516281

$$$$

Generated by Molecular Materials Informatics

 31 32  0  0  0  0  0  0  0  0999 V2000
   -7.0917  -15.6195    0.0000 C   0  0  0  0  0  0  0  0  0  0  0  0
   -7.0937  -17.1239    0.0000 C   0  0  0  0  0  0  0  0  0  0  0  0
   -5.7941  -17.8746    0.0000 C   0  0  0  0  0  0  0  0  0  0  0  0
   -4.4915  -17.1230    0.0000 C   0  0  0  0  0  0  0  0  0  0  0  0
   -4.4966  -15.6130    0.0000 C   0  0  0  0  0  0  0  0  0  0  0  0
   -5.7974  -14.8690    0.0000 C   0  0  0  0  0  0  0  0  0  0  0  0
   -8.3908  -14.8699    0.0000 O   0  0  0  0  0  0  0  0  0  0  0  0
   -8.3934  -17.8728    0.0000 O   0  0  0  0  0  0  0  0  0  0  0  0
   -9.6897  -15.6203    0.0000 C   0  0  0  0  0  0  0  0  0  0  0  0
   -3.2004  -14.8581    0.0000 C   0  0  0  0  0  0  0  0  0  0  0  0
   -1.8986  -15.6032    0.0000 C   0  0  0  0  0  0  0  0  0  0  0  0
   -0.6024  -14.8482    0.0000 C   0  0  0  0  0  0  0  0  0  0  0  0
    0.6994  -15.5933    0.0000 N   0  0  0  0  0  0  0  0  0  0  0  0
   -0.6081  -13.3482    0.0000 O   0  0  0  0  0  0  0  0  0  0  0  0
    1.9956  -14.8384    0.0000 C   0  0  0  0  0  0  0  0  0  0  0  0
    3.2976  -15.5835    0.0000 C   0  0  0  0  0  0  0  0  0  0  0  0
    1.9900  -13.3384    0.0000 C   0  0  0  0  0  0  0  0  0  0  0  0
    3.3032  -17.0835    0.0000 O   0  0  0  0  0  0  0  0  0  0  0  0
    4.5938  -14.8286    0.0000 N   0  0  0  0  0  0  0  0  0  0  0  0
    3.2861  -12.5835    0.0000 C   0  0  0  0  0  0  0  0  0  0  0  0
    3.2805  -11.0835    0.0000 C   0  0  0  0  0  0  0  0  0  0  0  0
    4.5767  -10.3288    0.0000 O   0  0  0  0  0  0  0  0  0  0  0  0
    1.9787  -10.3384    0.0000 O   0  0  0  0  0  0  0  0  0  0  0  0
    5.8956  -15.5737    0.0000 C   0  0  0  0  0  0  0  0  0  0  0  0
    5.8963  -17.0686    0.0000 C   0  0  0  0  0  0  0  0  0  0  0  0
    7.1967  -17.8135    0.0000 C   0  0  0  0  0  0  0  0  0  0  0  0
    8.4947  -17.0586    0.0000 C   0  0  0  0  0  0  0  0  0  0  0  0
    8.4842  -15.5508    0.0000 C   0  0  0  0  0  0  0  0  0  0  0  0
    7.1829  -14.8126    0.0000 C   0  0  0  0  0  0  0  0  0  0  0  0
   -9.6919  -17.1219    0.0000 C   0  0  0  0  0  0  0  0  0  0  0  0
    7.1694  -13.3126    0.0000 Cl  0  0  0  0  0  0  0  0  0  0  0  0
  3  4  2  0  0  0  0
 15 16  1  0  0  0  0
  2  8  1  0  0  0  0
 15 17  1  1  0  0  0
 16 18  2  0  0  0  0
  7  9  1  0  0  0  0
 16 19  1  0  0  0  0
  4  5  1  0  0  0  0
 17 20  1  0  0  0  0
  5 10  1  0  0  0  0
 20 21  1  0  0  0  0
  2  3  1  0  0  0  0
 21 22  1  0  0  0  0
 10 11  2  0  0  0  0
 21 23  2  0  0  0  0
  5  6  2  0  0  0  0
 19 24  1  0  0  0  0
 11 12  1  0  0  0  0
 24 25  2  0  0  0  0
  6  1  1  0  0  0  0
 25 26  1  0  0  0  0
 12 13  1  0  0  0  0
 26 27  2  0  0  0  0
  1  2  2  0  0  0  0
 27 28  1  0  0  0  0
 12 14  2  0  0  0  0
 28 29  2  0  0  0  0
 29 24  1  0  0  0  0
  1  7  1  0  0  0  0
  8 30  1  0  0  0  0
 15 13  1  0  0  0  0
 29 31  1  0  0  0  0
M  END
> <Value>
4.416801226031377

> <Relation>
=

> <SourceURI>
mol:CHEMBL476639

$$$$

Generated by Molecular Materials Informatics

 37 38  0  0  0  0  0  0  0  0999 V2000
   -6.3480  -11.8003    0.0000 C   0  0  0  0  0  0  0  0  0  0  0  0
   -6.3502  -13.3047    0.0000 C   0  0  0  0  0  0  0  0  0  0  0  0
   -5.0505  -14.0553    0.0000 C   0  0  0  0  0  0  0  0  0  0  0  0
   -3.7478  -13.3038    0.0000 C   0  0  0  0  0  0  0  0  0  0  0  0
   -3.7531  -11.7938    0.0000 C   0  0  0  0  0  0  0  0  0  0  0  0
   -5.0538  -11.0498    0.0000 C   0  0  0  0  0  0  0  0  0  0  0  0
   -7.6473  -11.0507    0.0000 O   0  0  0  0  0  0  0  0  0  0  0  0
   -7.6498  -14.0536    0.0000 O   0  0  0  0  0  0  0  0  0  0  0  0
   -8.9462  -11.8009    0.0000 C   0  0  0  0  0  0  0  0  0  0  0  0
   -2.4569  -11.0389    0.0000 C   0  0  0  0  0  0  0  0  0  0  0  0
   -1.1549  -11.7840    0.0000 C   0  0  0  0  0  0  0  0  0  0  0  0
    0.1413  -11.0291    0.0000 C   0  0  0  0  0  0  0  0  0  0  0  0
    1.4432  -11.7742    0.0000 N   0  0  0  0  0  0  0  0  0  0  0  0
    0.1357   -9.5291    0.0000 O   0  0  0  0  0  0  0  0  0  0  0  0
    2.7393  -11.0192    0.0000 C   0  0  0  0  0  0  0  0  0  0  0  0
    4.0412  -11.7643    0.0000 C   0  0  0  0  0  0  0  0  0  0  0  0
    2.7337   -9.5192    0.0000 C   0  0  0  0  0  0  0  0  0  0  0  0
    4.0468  -13.2643    0.0000 O   0  0  0  0  0  0  0  0  0  0  0  0
    5.3374  -11.0094    0.0000 N   0  0  0  0  0  0  0  0  0  0  0  0
    4.0299   -8.7643    0.0000 C   0  0  0  0  0  0  0  0  0  0  0  0
    4.0243   -7.2643    0.0000 C   0  0  0  0  0  0  0  0  0  0  0  0
    5.3204   -6.5094    0.0000 O   0  0  0  0  0  0  0  0  0  0  0  0
    2.7224   -6.5192    0.0000 O   0  0  0  0  0  0  0  0  0  0  0  0
    6.6394  -11.7545    0.0000 C   0  0  0  0  0  0  0  0  0  0  0  0
   -8.9482  -13.3025    0.0000 C   0  0  0  0  0  0  0  0  0  0  0  0
    6.6450  -13.2545    0.0000 C   0  0  0  0  0  0  0  0  0  0  0  0
    5.3488  -14.0094    0.0000 O   0  0  0  0  0  0  0  0  0  0  0  0
    7.9468  -13.9996    0.0000 O   0  0  0  0  0  0  0  0  0  0  0  0
    7.9525  -15.4996    0.0000 C   0  0  0  0  0  0  0  0  0  0  0  0
    7.9355  -10.9996    0.0000 C   0  0  0  0  0  0  0  0  0  0  0  0
    7.9299   -9.4996    0.0000 C   0  0  0  0  0  0  0  0  0  0  0  0
    9.2294   -8.7480    0.0000 C   0  0  0  0  0  0  0  0  0  0  0  0
    9.2245   -7.2492    0.0000 C   0  0  0  0  0  0  0  0  0  0  0  0
    7.9215   -6.5027    0.0000 C   0  0  0  0  0  0  0  0  0  0  0  0
    6.6212   -7.2656    0.0000 C   0  0  0  0  0  0  0  0  0  0  0  0
    6.6325   -8.7618    0.0000 C   0  0  0  0  0  0  0  0  0  0  0  0
    7.9139   -5.0027    0.0000 F   0  0  0  0  0  0  0  0  0  0  0  0
  7  9  1  0  0  0  0
 16 19  1  0  0  0  0
  4  5  1  0  0  0  0
 17 20  1  0  0  0  0
  5 10  1  0  0  0  0
 20 21  1  0  0  0  0
  2  3  1  0  0  0  0
 21 22  1  0  0  0  0
 10 11  2  0  0  0  0
 21 23  2  0  0  0  0
  5  6  2  0  0  0  0
 19 24  1  0  0  0  0
 11 12  1  0  0  0  0
  8 25  1  0  0  0  0
  6  1  1  0  0  0  0
 24 26  1  0  0  0  0
 12 13  1  0  0  0  0
 26 27  2  0  0  0  0
  1  2  2  0  0  0  0
 26 28  1  0  0  0  0
 12 14  2  0  0  0  0
 28 29  1  0  0  0  0
  1  7  1  0  0  0  0
 24 30  1  0  0  0  0
 15 13  1  0  0  0  0
 30 31  1  0  0  0  0
  3  4  2  0  0  0  0
 31 32  2  0  0  0  0
 15 16  1  0  0  0  0
 32 33  1  0  0  0  0
  2  8  1  0  0  0  0
 33 34  2  0  0  0  0
 15 17  1  1  0  0  0
 34 35  1  0  0  0  0
 35 36  2  0  0  0  0
 36 31  1  0  0  0  0
 16 18  2  0  0  0  0
 34 37  1  0  0  0  0
M  END
> <Value>
4.359518563029578

> <Relation>
=

> <SourceURI>
mol:CHEMBL523446

$$$$

Generated by Molecular Materials Informatics

 29 29  0  0  0  0  0  0  0  0999 V2000
   -6.3232    0.7304    0.0000 C   0  0  0  0  0  0  0  0  0  0  0  0
   -6.3254   -0.7740    0.0000 C   0  0  0  0  0  0  0  0  0  0  0  0
   -5.0257   -1.5247    0.0000 C   0  0  0  0  0  0  0  0  0  0  0  0
   -3.7230   -0.7730    0.0000 C   0  0  0  0  0  0  0  0  0  0  0  0
   -3.7283    0.7370    0.0000 C   0  0  0  0  0  0  0  0  0  0  0  0
   -5.0290    1.4810    0.0000 C   0  0  0  0  0  0  0  0  0  0  0  0
   -7.6225    1.4801    0.0000 O   0  0  0  0  0  0  0  0  0  0  0  0
   -7.6250   -1.5229    0.0000 O   0  0  0  0  0  0  0  0  0  0  0  0
   -8.9214    0.7297    0.0000 C   0  0  0  0  0  0  0  0  0  0  0  0
   -2.4321    1.4919    0.0000 C   0  0  0  0  0  0  0  0  0  0  0  0
   -1.1301    0.7468    0.0000 C   0  0  0  0  0  0  0  0  0  0  0  0
    0.1661    1.5017    0.0000 C   0  0  0  0  0  0  0  0  0  0  0  0
    1.4680    0.7566    0.0000 N   0  0  0  0  0  0  0  0  0  0  0  0
    0.1605    3.0017    0.0000 O   0  0  0  0  0  0  0  0  0  0  0  0
    2.7641    1.5115    0.0000 C   0  0  0  0  0  0  0  0  0  0  0  0
    4.0660    0.7664    0.0000 C   0  0  0  0  0  0  0  0  0  0  0  0
    2.7585    3.0115    0.0000 C   0  0  0  0  0  0  0  0  0  0  0  0
    4.0716   -0.7336    0.0000 O   0  0  0  0  0  0  0  0  0  0  0  0
    5.3622    1.5213    0.0000 N   0  0  0  0  0  0  0  0  0  0  0  0
    4.0547    3.7664    0.0000 C   0  0  0  0  0  0  0  0  0  0  0  0
    4.0491    5.2664    0.0000 C   0  0  0  0  0  0  0  0  0  0  0  0
    5.3453    6.0212    0.0000 O   0  0  0  0  0  0  0  0  0  0  0  0
    2.7472    6.0115    0.0000 O   0  0  0  0  0  0  0  0  0  0  0  0
    6.6642    0.7762    0.0000 C   0  0  0  0  0  0  0  0  0  0  0  0
   -8.9234   -0.7720    0.0000 C   0  0  0  0  0  0  0  0  0  0  0  0
    6.6698   -0.7238    0.0000 C   0  0  0  0  0  0  0  0  0  0  0  0
    5.3736   -1.4787    0.0000 O   0  0  0  0  0  0  0  0  0  0  0  0
    7.9716   -1.4689    0.0000 O   0  0  0  0  0  0  0  0  0  0  0  0
    7.9773   -2.9689    0.0000 C   0  0  0  0  0  0  0  0  0  0  0  0
  1  7  1  0  0  0  0
 15 13  1  0  0  0  0
  3  4  2  0  0  0  0
 15 16  1  0  0  0  0
  2  8  1  0  0  0  0
 15 17  1  1  0  0  0
 16 18  2  0  0  0  0
  7  9  1  0  0  0  0
 16 19  1  0  0  0  0
  4  5  1  0  0  0  0
 17 20  1  0  0  0  0
  5 10  1  0  0  0  0
 20 21  1  0  0  0  0
  2  3  1  0  0  0  0
 21 22  1  0  0  0  0
 10 11  2  0  0  0  0
 21 23  2  0  0  0  0
  5  6  2  0  0  0  0
 19 24  1  0  0  0  0
 11 12  1  0  0  0  0
  8 25  1  0  0  0  0
  6  1  1  0  0  0  0
 24 26  1  0  0  0  0
 12 13  1  0  0  0  0
 26 27  2  0  0  0  0
  1  2  2  0  0  0  0
 26 28  1  0  0  0  0
 12 14  2  0  0  0  0
 28 29  1  0  0  0  0
M  END
> <Value>
4.297569463554475

> <Relation>
=

> <SourceURI>
mol:CHEMBL489414

$$$$

Generated by Molecular Materials Informatics

 30 30  0  0  0  0  0  0  0  0999 V2000
    5.3811    1.0999    0.0000 C   0  0  0  0  0  0  0  0  0  0  0  0
    5.3789   -0.4044    0.0000 C   0  0  0  0  0  0  0  0  0  0  0  0
    6.6785   -1.1550    0.0000 C   0  0  0  0  0  0  0  0  0  0  0  0
    7.9812   -0.4035    0.0000 C   0  0  0  0  0  0  0  0  0  0  0  0
    7.9760    1.1065    0.0000 C   0  0  0  0  0  0  0  0  0  0  0  0
    6.6752    1.8505    0.0000 C   0  0  0  0  0  0  0  0  0  0  0  0
    4.0818    1.8496    0.0000 O   0  0  0  0  0  0  0  0  0  0  0  0
    4.0792   -1.1534    0.0000 O   0  0  0  0  0  0  0  0  0  0  0  0
    2.7829    1.0994    0.0000 C   0  0  0  0  0  0  0  0  0  0  0  0
    9.2722    1.8614    0.0000 C   0  0  0  0  0  0  0  0  0  0  0  0
   10.5740    1.1163    0.0000 C   0  0  0  0  0  0  0  0  0  0  0  0
   11.8701    1.8712    0.0000 C   0  0  0  0  0  0  0  0  0  0  0  0
   13.1721    1.1261    0.0000 N   0  0  0  0  0  0  0  0  0  0  0  0
   11.8645    3.3712    0.0000 O   0  0  0  0  0  0  0  0  0  0  0  0
   14.4683    1.8810    0.0000 C   0  0  0  0  0  0  0  0  0  0  0  0
   15.7701    1.1359    0.0000 C   0  0  0  0  0  0  0  0  0  0  0  0
   14.4627    3.3810    0.0000 C   0  0  0  0  0  0  0  0  0  0  0  0
   15.7758   -0.3641    0.0000 O   0  0  0  0  0  0  0  0  0  0  0  0
   17.0663    1.8908    0.0000 N   0  0  0  0  0  0  0  0  0  0  0  0
   15.7589    4.1359    0.0000 C   0  0  0  0  0  0  0  0  0  0  0  0
   15.7532    5.6359    0.0000 C   0  0  0  0  0  0  0  0  0  0  0  0
   17.0494    6.3965    0.0000 O   0  0  0  0  0  0  0  0  0  0  0  0
   14.4512    6.3910    0.0000 O   0  0  0  0  0  0  0  0  0  0  0  0
   18.3681    1.1457    0.0000 C   0  0  0  0  0  0  0  0  0  0  0  0
    2.7809   -0.4023    0.0000 C   0  0  0  0  0  0  0  0  0  0  0  0
   18.3738   -0.3543    0.0000 C   0  0  0  0  0  0  0  0  0  0  0  0
   17.0776   -1.1092    0.0000 O   0  0  0  0  0  0  0  0  0  0  0  0
   19.6758   -1.0994    0.0000 O   0  0  0  0  0  0  0  0  0  0  0  0
   19.6814   -2.5994    0.0000 C   0  0  0  0  0  0  0  0  0  0  0  0
   19.6643    1.9006    0.0000 C   0  0  0  0  0  0  0  0  0  0  0  0
 15 13  1  0  0  0  0
  3  4  2  0  0  0  0
 15 16  1  0  0  0  0
  2  8  1  0  0  0  0
 15 17  1  1  0  0  0
 16 18  2  0  0  0  0
  7  9  1  0  0  0  0
 16 19  1  0  0  0  0
  4  5  1  0  0  0  0
 17 20  1  0  0  0  0
  5 10  1  0  0  0  0
 20 21  1  0  0  0  0
  2  3  1  0  0  0  0
 21 22  1  0  0  0  0
 10 11  2  0  0  0  0
 21 23  2  0  0  0  0
  5  6  2  0  0  0  0
 19 24  1  0  0  0  0
 11 12  1  0  0  0  0
  8 25  1  0  0  0  0
  6  1  1  0  0  0  0
 24 26  1  0  0  0  0
 12 13  1  0  0  0  0
 26 27  2  0  0  0  0
  1  2  2  0  0  0  0
 26 28  1  0  0  0  0
 12 14  2  0  0  0  0
 28 29  1  0  0  0  0
  1  7  1  0  0  0  0
 24 30  1  0  0  0  0
M  END
> <Value>
4.258848401148215

> <Relation>
=

> <SourceURI>
mol:CHEMBL489415

$$$$

Generated by Molecular Materials Informatics

 31 32  0  0  0  0  0  0  0  0999 V2000
    5.6375   -9.8778    0.0000 C   0  0  0  0  0  0  0  0  0  0  0  0
    5.6353  -11.3822    0.0000 C   0  0  0  0  0  0  0  0  0  0  0  0
    6.9349  -12.1329    0.0000 C   0  0  0  0  0  0  0  0  0  0  0  0
    8.2377  -11.3813    0.0000 C   0  0  0  0  0  0  0  0  0  0  0  0
    8.2324   -9.8713    0.0000 C   0  0  0  0  0  0  0  0  0  0  0  0
    6.9317   -9.1275    0.0000 C   0  0  0  0  0  0  0  0  0  0  0  0
    4.3382   -9.1282    0.0000 O   0  0  0  0  0  0  0  0  0  0  0  0
    4.3357  -12.1313    0.0000 O   0  0  0  0  0  0  0  0  0  0  0  0
    3.0393   -9.8786    0.0000 C   0  0  0  0  0  0  0  0  0  0  0  0
    9.5286   -9.1164    0.0000 C   0  0  0  0  0  0  0  0  0  0  0  0
   10.8306   -9.8615    0.0000 C   0  0  0  0  0  0  0  0  0  0  0  0
   12.1268   -9.1066    0.0000 C   0  0  0  0  0  0  0  0  0  0  0  0
   13.4286   -9.8516    0.0000 N   0  0  0  0  0  0  0  0  0  0  0  0
   12.1211   -7.6065    0.0000 O   0  0  0  0  0  0  0  0  0  0  0  0
   14.7248   -9.0969    0.0000 C   0  0  0  0  0  0  0  0  0  0  0  0
   16.0266   -9.8420    0.0000 C   0  0  0  0  0  0  0  0  0  0  0  0
   14.7192   -7.5969    0.0000 C   0  0  0  0  0  0  0  0  0  0  0  0
   16.0323  -11.3420    0.0000 O   0  0  0  0  0  0  0  0  0  0  0  0
   17.3228   -9.0871    0.0000 N   0  0  0  0  0  0  0  0  0  0  0  0
   16.0153   -6.8420    0.0000 C   0  0  0  0  0  0  0  0  0  0  0  0
   16.0097   -5.3420    0.0000 C   0  0  0  0  0  0  0  0  0  0  0  0
   17.3059   -4.5871    0.0000 O   0  0  0  0  0  0  0  0  0  0  0  0
   14.7079   -4.5969    0.0000 O   0  0  0  0  0  0  0  0  0  0  0  0
   18.6248   -9.8322    0.0000 C   0  0  0  0  0  0  0  0  0  0  0  0
   18.6255  -11.3269    0.0000 C   0  0  0  0  0  0  0  0  0  0  0  0
   19.9259  -12.0718    0.0000 C   0  0  0  0  0  0  0  0  0  0  0  0
   21.2239  -11.3169    0.0000 C   0  0  0  0  0  0  0  0  0  0  0  0
   21.2134   -9.8091    0.0000 C   0  0  0  0  0  0  0  0  0  0  0  0
   19.9121   -9.0709    0.0000 C   0  0  0  0  0  0  0  0  0  0  0  0
    3.0373  -11.3802    0.0000 C   0  0  0  0  0  0  0  0  0  0  0  0
   19.8985   -7.5711    0.0000 F   0  0  0  0  0  0  0  0  0  0  0  0
  3  4  2  0  0  0  0
 15 16  1  0  0  0  0
  2  8  1  0  0  0  0
 15 17  1  1  0  0  0
 16 18  2  0  0  0  0
  7  9  1  0  0  0  0
 16 19  1  0  0  0  0
  4  5  1  0  0  0  0
 17 20  1  0  0  0  0
  5 10  1  0  0  0  0
 20 21  1  0  0  0  0
  2  3  1  0  0  0  0
 21 22  1  0  0  0  0
 10 11  2  0  0  0  0
 21 23  2  0  0  0  0
  5  6  2  0  0  0  0
 19 24  1  0  0  0  0
 11 12  1  0  0  0  0
 24 25  2  0  0  0  0
  6  1  1  0  0  0  0
 25 26  1  0  0  0  0
 12 13  1  0  0  0  0
 26 27  2  0  0  0  0
  1  2  2  0  0  0  0
 27 28  1  0  0  0  0
 12 14  2  0  0  0  0
 28 29  2  0  0  0  0
 29 24  1  0  0  0  0
  1  7  1  0  0  0  0
  8 30  1  0  0  0  0
 15 13  1  0  0  0  0
 29 31  1  0  0  0  0
M  END
> <Value>
4.245651664288981

> <Relation>
=

> <SourceURI>
mol:CHEMBL476638

$$$$

Generated by Molecular Materials Informatics

 31 32  0  0  0  0  0  0  0  0999 V2000
    5.3569   -4.7153    0.0000 C   0  0  0  0  0  0  0  0  0  0  0  0
    5.3547   -6.2197    0.0000 C   0  0  0  0  0  0  0  0  0  0  0  0
    6.6543   -6.9704    0.0000 C   0  0  0  0  0  0  0  0  0  0  0  0
    7.9571   -6.2188    0.0000 C   0  0  0  0  0  0  0  0  0  0  0  0
    7.9518   -4.7088    0.0000 C   0  0  0  0  0  0  0  0  0  0  0  0
    6.6510   -3.9650    0.0000 C   0  0  0  0  0  0  0  0  0  0  0  0
    4.0576   -3.9657    0.0000 O   0  0  0  0  0  0  0  0  0  0  0  0
    4.0550   -6.9688    0.0000 O   0  0  0  0  0  0  0  0  0  0  0  0
    2.7587   -4.7161    0.0000 C   0  0  0  0  0  0  0  0  0  0  0  0
    9.2480   -3.9539    0.0000 C   0  0  0  0  0  0  0  0  0  0  0  0
   10.5500   -4.6990    0.0000 C   0  0  0  0  0  0  0  0  0  0  0  0
   11.8462   -3.9440    0.0000 C   0  0  0  0  0  0  0  0  0  0  0  0
   13.1480   -4.6891    0.0000 N   0  0  0  0  0  0  0  0  0  0  0  0
   11.8405   -2.4440    0.0000 O   0  0  0  0  0  0  0  0  0  0  0  0
   14.4442   -3.9344    0.0000 C   0  0  0  0  0  0  0  0  0  0  0  0
   15.7460   -4.6795    0.0000 C   0  0  0  0  0  0  0  0  0  0  0  0
   14.4385   -2.4344    0.0000 C   0  0  0  0  0  0  0  0  0  0  0  0
   15.7516   -6.1795    0.0000 O   0  0  0  0  0  0  0  0  0  0  0  0
   17.0422   -3.9246    0.0000 N   0  0  0  0  0  0  0  0  0  0  0  0
   15.7347   -1.6795    0.0000 C   0  0  0  0  0  0  0  0  0  0  0  0
   15.7291   -0.1795    0.0000 C   0  0  0  0  0  0  0  0  0  0  0  0
   17.0253    0.5754    0.0000 O   0  0  0  0  0  0  0  0  0  0  0  0
   14.4273    0.5656    0.0000 O   0  0  0  0  0  0  0  0  0  0  0  0
   18.3442   -4.6697    0.0000 C   0  0  0  0  0  0  0  0  0  0  0  0
   18.3449   -6.1644    0.0000 C   0  0  0  0  0  0  0  0  0  0  0  0
   19.6453   -6.9093    0.0000 C   0  0  0  0  0  0  0  0  0  0  0  0
   20.9433   -6.1544    0.0000 C   0  0  0  0  0  0  0  0  0  0  0  0
   20.9328   -4.6466    0.0000 C   0  0  0  0  0  0  0  0  0  0  0  0
   19.6315   -3.9084    0.0000 C   0  0  0  0  0  0  0  0  0  0  0  0
   22.2460   -6.8977    0.0000 Br  0  0  0  0  0  0  0  0  0  0  0  0
    2.7567   -6.2177    0.0000 C   0  0  0  0  0  0  0  0  0  0  0  0
  3  4  2  0  0  0  0
 15 16  1  0  0  0  0
  2  8  1  0  0  0  0
 15 17  1  1  0  0  0
 16 18  2  0  0  0  0
  7  9  1  0  0  0  0
 16 19  1  0  0  0  0
  4  5  1  0  0  0  0
 17 20  1  0  0  0  0
  5 10  1  0  0  0  0
 20 21  1  0  0  0  0
  2  3  1  0  0  0  0
 21 22  1  0  0  0  0
 10 11  2  0  0  0  0
 21 23  2  0  0  0  0
  5  6  2  0  0  0  0
 19 24  1  0  0  0  0
 11 12  1  0  0  0  0
 24 25  2  0  0  0  0
  6  1  1  0  0  0  0
 25 26  1  0  0  0  0
 12 13  1  0  0  0  0
 26 27  2  0  0  0  0
  1  2  2  0  0  0  0
 27 28  1  0  0  0  0
 12 14  2  0  0  0  0
 28 29  2  0  0  0  0
 29 24  1  0  0  0  0
  1  7  1  0  0  0  0
 27 30  1  0  0  0  0
 15 13  1  0  0  0  0
  8 31  1  0  0  0  0
M  END
> <Value>
4.235823867609669

> <Relation>
=

> <SourceURI>
mol:CHEMBL514357

$$$$

Generated by Molecular Materials Informatics

 34 34  0  0  0  0  0  0  0  0999 V2000
    5.7378   -4.8988    0.0000 C   0  0  0  0  0  0  0  0  0  0  0  0
    5.7356   -6.4032    0.0000 C   0  0  0  0  0  0  0  0  0  0  0  0
    7.0353   -7.1537    0.0000 C   0  0  0  0  0  0  0  0  0  0  0  0
    8.3380   -6.4023    0.0000 C   0  0  0  0  0  0  0  0  0  0  0  0
    8.3327   -4.8923    0.0000 C   0  0  0  0  0  0  0  0  0  0  0  0
    7.0320   -4.1483    0.0000 C   0  0  0  0  0  0  0  0  0  0  0  0
    4.4385   -4.1492    0.0000 O   0  0  0  0  0  0  0  0  0  0  0  0
    4.4360   -7.1521    0.0000 O   0  0  0  0  0  0  0  0  0  0  0  0
    3.1396   -4.8994    0.0000 C   0  0  0  0  0  0  0  0  0  0  0  0
    9.6289   -4.1374    0.0000 C   0  0  0  0  0  0  0  0  0  0  0  0
   10.9307   -4.8825    0.0000 C   0  0  0  0  0  0  0  0  0  0  0  0
   12.2269   -4.1275    0.0000 C   0  0  0  0  0  0  0  0  0  0  0  0
   13.5289   -4.8726    0.0000 N   0  0  0  0  0  0  0  0  0  0  0  0
   12.2213   -2.6275    0.0000 O   0  0  0  0  0  0  0  0  0  0  0  0
   14.8251   -4.1177    0.0000 C   0  0  0  0  0  0  0  0  0  0  0  0
   16.1269   -4.8628    0.0000 C   0  0  0  0  0  0  0  0  0  0  0  0
   14.8194   -2.6177    0.0000 C   0  0  0  0  0  0  0  0  0  0  0  0
   16.1325   -6.3628    0.0000 O   0  0  0  0  0  0  0  0  0  0  0  0
   17.4231   -4.1079    0.0000 N   0  0  0  0  0  0  0  0  0  0  0  0
   16.1156   -1.8628    0.0000 C   0  0  0  0  0  0  0  0  0  0  0  0
   16.1100   -0.3628    0.0000 C   0  0  0  0  0  0  0  0  0  0  0  0
   17.4062    0.3921    0.0000 O   0  0  0  0  0  0  0  0  0  0  0  0
   14.8080    0.3823    0.0000 O   0  0  0  0  0  0  0  0  0  0  0  0
   18.7249   -4.8530    0.0000 C   0  0  0  0  0  0  0  0  0  0  0  0
    3.1376   -6.4010    0.0000 C   0  0  0  0  0  0  0  0  0  0  0  0
   18.7305   -6.3530    0.0000 C   0  0  0  0  0  0  0  0  0  0  0  0
   17.4344   -7.1079    0.0000 O   0  0  0  0  0  0  0  0  0  0  0  0
   20.0325   -7.0981    0.0000 O   0  0  0  0  0  0  0  0  0  0  0  0
   20.0382   -8.5981    0.0000 C   0  0  0  0  0  0  0  0  0  0  0  0
   20.0211   -4.0981    0.0000 C   0  0  0  0  0  0  0  0  0  0  0  0
   21.3231   -4.8432    0.0000 C   0  0  0  0  0  0  0  0  0  0  0  0
   21.3287   -6.3432    0.0000 O   0  0  0  0  0  0  0  0  0  0  0  0
   22.6193   -4.0883    0.0000 O   0  0  0  0  0  0  0  0  0  0  0  0
   22.6136   -2.5883    0.0000 C   0  0  0  0  0  0  0  0  0  0  0  0
 15 17  1  1  0  0  0
 16 18  2  0  0  0  0
  7  9  1  0  0  0  0
 16 19  1  0  0  0  0
  4  5  1  0  0  0  0
 17 20  1  0  0  0  0
  5 10  1  0  0  0  0
 20 21  1  0  0  0  0
  2  3  1  0  0  0  0
 21 22  1  0  0  0  0
 10 11  2  0  0  0  0
 21 23  2  0  0  0  0
  5  6  2  0  0  0  0
 19 24  1  0  0  0  0
 11 12  1  0  0  0  0
  8 25  1  0  0  0  0
  6  1  1  0  0  0  0
 24 26  1  0  0  0  0
 12 13  1  0  0  0  0
 26 27  2  0  0  0  0
  1  2  2  0  0  0  0
 26 28  1  0  0  0  0
 12 14  2  0  0  0  0
 28 29  1  0  0  0  0
  1  7  1  0  0  0  0
 24 30  1  0  0  0  0
 15 13  1  0  0  0  0
 30 31  1  0  0  0  0
  3  4  2  0  0  0  0
 31 32  2  0  0  0  0
 15 16  1  0  0  0  0
 31 33  1  0  0  0  0
  2  8  1  0  0  0  0
 33 34  1  0  0  0  0
M  END
> <Value>
4.218244625347531

> <Relation>
=

> <SourceURI>
mol:CHEMBL521626

$$$$

Generated by Molecular Materials Informatics

 32 32  0  0  0  0  0  0  0  0999 V2000
   -6.6748   -5.3030    0.0000 C   0  0  0  0  0  0  0  0  0  0  0  0
   -6.6770   -6.8072    0.0000 C   0  0  0  0  0  0  0  0  0  0  0  0
   -5.3773   -7.5579    0.0000 C   0  0  0  0  0  0  0  0  0  0  0  0
   -4.0746   -6.8063    0.0000 C   0  0  0  0  0  0  0  0  0  0  0  0
   -4.0799   -5.2963    0.0000 C   0  0  0  0  0  0  0  0  0  0  0  0
   -5.3806   -4.5525    0.0000 C   0  0  0  0  0  0  0  0  0  0  0  0
   -7.9741   -4.5532    0.0000 O   0  0  0  0  0  0  0  0  0  0  0  0
   -7.9766   -7.5563    0.0000 O   0  0  0  0  0  0  0  0  0  0  0  0
   -9.2730   -5.3036    0.0000 C   0  0  0  0  0  0  0  0  0  0  0  0
   -2.7837   -4.5414    0.0000 C   0  0  0  0  0  0  0  0  0  0  0  0
   -1.4817   -5.2865    0.0000 C   0  0  0  0  0  0  0  0  0  0  0  0
   -0.1855   -4.5316    0.0000 C   0  0  0  0  0  0  0  0  0  0  0  0
    1.1164   -5.2767    0.0000 N   0  0  0  0  0  0  0  0  0  0  0  0
   -0.1911   -3.0317    0.0000 O   0  0  0  0  0  0  0  0  0  0  0  0
    2.4125   -4.5219    0.0000 C   0  0  0  0  0  0  0  0  0  0  0  0
    3.7144   -5.2670    0.0000 C   0  0  0  0  0  0  0  0  0  0  0  0
    2.4069   -3.0219    0.0000 C   0  0  0  0  0  0  0  0  0  0  0  0
    3.7200   -6.7670    0.0000 O   0  0  0  0  0  0  0  0  0  0  0  0
    5.0106   -4.5121    0.0000 N   0  0  0  0  0  0  0  0  0  0  0  0
    3.7031   -2.2670    0.0000 C   0  0  0  0  0  0  0  0  0  0  0  0
    3.6975   -0.7670    0.0000 C   0  0  0  0  0  0  0  0  0  0  0  0
    4.9936   -0.0121    0.0000 O   0  0  0  0  0  0  0  0  0  0  0  0
    2.3956   -0.0219    0.0000 O   0  0  0  0  0  0  0  0  0  0  0  0
    6.3126   -5.2572    0.0000 C   0  0  0  0  0  0  0  0  0  0  0  0
   -9.2750   -6.8052    0.0000 C   0  0  0  0  0  0  0  0  0  0  0  0
    6.3182   -6.7572    0.0000 C   0  0  0  0  0  0  0  0  0  0  0  0
    5.0220   -7.5121    0.0000 O   0  0  0  0  0  0  0  0  0  0  0  0
    7.6200   -7.5023    0.0000 O   0  0  0  0  0  0  0  0  0  0  0  0
    7.6257   -9.0023    0.0000 C   0  0  0  0  0  0  0  0  0  0  0  0
    7.6088   -4.5023    0.0000 C   0  0  0  0  0  0  0  0  0  0  0  0
    7.6031   -3.0023    0.0000 C   0  0  0  0  0  0  0  0  0  0  0  0
    8.9106   -5.2474    0.0000 C   0  0  0  0  0  0  0  0  0  0  0  0
 15 16  1  0  0  0  0
  2  8  1  0  0  0  0
 15 17  1  1  0  0  0
 16 18  2  0  0  0  0
  7  9  1  0  0  0  0
 16 19  1  0  0  0  0
  4  5  1  0  0  0  0
 17 20  1  0  0  0  0
  5 10  1  0  0  0  0
 20 21  1  0  0  0  0
  2  3  1  0  0  0  0
 21 22  1  0  0  0  0
 10 11  2  0  0  0  0
 21 23  2  0  0  0  0
  5  6  2  0  0  0  0
 19 24  1  0  0  0  0
 11 12  1  0  0  0  0
  8 25  1  0  0  0  0
  6  1  1  0  0  0  0
 24 26  1  0  0  0  0
 12 13  1  0  0  0  0
 26 27  2  0  0  0  0
  1  2  2  0  0  0  0
 26 28  1  0  0  0  0
 12 14  2  0  0  0  0
 28 29  1  0  0  0  0
  1  7  1  0  0  0  0
 24 30  1  0  0  0  0
 15 13  1  0  0  0  0
 30 31  1  0  0  0  0
  3  4  2  0  0  0  0
 30 32  1  0  0  0  0
M  END
> <Value>
4.1598939055432425

> <Relation>
=

> <SourceURI>
mol:CHEMBL491656

$$$$

Generated by Molecular Materials Informatics

 31 32  0  0  0  0  0  0  0  0999 V2000
    5.1821  -15.6695    0.0000 C   0  0  0  0  0  0  0  0  0  0  0  0
    5.1801  -17.1739    0.0000 C   0  0  0  0  0  0  0  0  0  0  0  0
    6.4797  -17.9246    0.0000 C   0  0  0  0  0  0  0  0  0  0  0  0
    7.7823  -17.1730    0.0000 C   0  0  0  0  0  0  0  0  0  0  0  0
    7.7772  -15.6630    0.0000 C   0  0  0  0  0  0  0  0  0  0  0  0
    6.4764  -14.9190    0.0000 C   0  0  0  0  0  0  0  0  0  0  0  0
    3.8830  -14.9199    0.0000 O   0  0  0  0  0  0  0  0  0  0  0  0
    3.8804  -17.9228    0.0000 O   0  0  0  0  0  0  0  0  0  0  0  0
    2.5841  -15.6703    0.0000 C   0  0  0  0  0  0  0  0  0  0  0  0
    9.0734  -14.9081    0.0000 C   0  0  0  0  0  0  0  0  0  0  0  0
   10.3752  -15.6532    0.0000 C   0  0  0  0  0  0  0  0  0  0  0  0
   11.6714  -14.8982    0.0000 C   0  0  0  0  0  0  0  0  0  0  0  0
   12.9732  -15.6433    0.0000 N   0  0  0  0  0  0  0  0  0  0  0  0
   11.6657  -13.3982    0.0000 O   0  0  0  0  0  0  0  0  0  0  0  0
   14.2694  -14.8884    0.0000 C   0  0  0  0  0  0  0  0  0  0  0  0
   15.5714  -15.6335    0.0000 C   0  0  0  0  0  0  0  0  0  0  0  0
   14.2638  -13.3884    0.0000 C   0  0  0  0  0  0  0  0  0  0  0  0
   15.5770  -17.1335    0.0000 O   0  0  0  0  0  0  0  0  0  0  0  0
   16.8676  -14.8786    0.0000 N   0  0  0  0  0  0  0  0  0  0  0  0
   15.5599  -12.6335    0.0000 C   0  0  0  0  0  0  0  0  0  0  0  0
   15.5543  -11.1335    0.0000 C   0  0  0  0  0  0  0  0  0  0  0  0
   16.8505  -10.3788    0.0000 O   0  0  0  0  0  0  0  0  0  0  0  0
   14.2525  -10.3884    0.0000 O   0  0  0  0  0  0  0  0  0  0  0  0
   18.1694  -15.6237    0.0000 C   0  0  0  0  0  0  0  0  0  0  0  0
   18.1701  -17.1186    0.0000 C   0  0  0  0  0  0  0  0  0  0  0  0
   19.4705  -17.8635    0.0000 C   0  0  0  0  0  0  0  0  0  0  0  0
   20.7685  -17.1086    0.0000 C   0  0  0  0  0  0  0  0  0  0  0  0
   20.7580  -15.6008    0.0000 C   0  0  0  0  0  0  0  0  0  0  0  0
   19.4567  -14.8626    0.0000 C   0  0  0  0  0  0  0  0  0  0  0  0
    2.5819  -17.1719    0.0000 C   0  0  0  0  0  0  0  0  0  0  0  0
   22.0516  -14.8413    0.0000 Cl  0  0  0  0  0  0  0  0  0  0  0  0
  3  4  2  0  0  0  0
 15 16  1  0  0  0  0
  2  8  1  0  0  0  0
 15 17  1  1  0  0  0
 16 18  2  0  0  0  0
  7  9  1  0  0  0  0
 16 19  1  0  0  0  0
  4  5  1  0  0  0  0
 17 20  1  0  0  0  0
  5 10  1  0  0  0  0
 20 21  1  0  0  0  0
  2  3  1  0  0  0  0
 21 22  1  0  0  0  0
 10 11  2  0  0  0  0
 21 23  2  0  0  0  0
  5  6  2  0  0  0  0
 19 24  1  0  0  0  0
 11 12  1  0  0  0  0
 24 25  2  0  0  0  0
  6  1  1  0  0  0  0
 25 26  1  0  0  0  0
 12 13  1  0  0  0  0
 26 27  2  0  0  0  0
  1  2  2  0  0  0  0
 27 28  1  0  0  0  0
 12 14  2  0  0  0  0
 28 29  2  0  0  0  0
 29 24  1  0  0  0  0
  1  7  1  0  0  0  0
  8 30  1  0  0  0  0
 15 13  1  0  0  0  0
 28 31  1  0  0  0  0
M  END
> <Value>
4.094204119632131

> <Relation>
=

> <SourceURI>
mol:CHEMBL477652

$$$$

Generated by Molecular Materials Informatics

 32 33  0  0  0  0  0  0  0  0999 V2000
   -6.8554   -9.7291    0.0000 C   0  0  0  0  0  0  0  0  0  0  0  0
   -6.8574  -11.2334    0.0000 C   0  0  0  0  0  0  0  0  0  0  0  0
   -5.5578  -11.9842    0.0000 C   0  0  0  0  0  0  0  0  0  0  0  0
   -4.2552  -11.2325    0.0000 C   0  0  0  0  0  0  0  0  0  0  0  0
   -4.2603   -9.7225    0.0000 C   0  0  0  0  0  0  0  0  0  0  0  0
   -5.5611   -8.9787    0.0000 C   0  0  0  0  0  0  0  0  0  0  0  0
   -8.1545   -8.9794    0.0000 O   0  0  0  0  0  0  0  0  0  0  0  0
   -8.1571  -11.9825    0.0000 O   0  0  0  0  0  0  0  0  0  0  0  0
   -9.4534   -9.7298    0.0000 C   0  0  0  0  0  0  0  0  0  0  0  0
   -2.9641   -8.9676    0.0000 C   0  0  0  0  0  0  0  0  0  0  0  0
   -1.6623   -9.7127    0.0000 C   0  0  0  0  0  0  0  0  0  0  0  0
   -0.3661   -8.9578    0.0000 C   0  0  0  0  0  0  0  0  0  0  0  0
    0.9357   -9.7029    0.0000 N   0  0  0  0  0  0  0  0  0  0  0  0
   -0.3718   -7.4578    0.0000 O   0  0  0  0  0  0  0  0  0  0  0  0
    2.2319   -8.9482    0.0000 C   0  0  0  0  0  0  0  0  0  0  0  0
    3.5339   -9.6932    0.0000 C   0  0  0  0  0  0  0  0  0  0  0  0
    2.2263   -7.4481    0.0000 C   0  0  0  0  0  0  0  0  0  0  0  0
    3.5395  -11.1933    0.0000 O   0  0  0  0  0  0  0  0  0  0  0  0
    4.8301   -8.9383    0.0000 N   0  0  0  0  0  0  0  0  0  0  0  0
    3.5224   -6.6932    0.0000 C   0  0  0  0  0  0  0  0  0  0  0  0
    3.5168   -5.1932    0.0000 C   0  0  0  0  0  0  0  0  0  0  0  0
    4.8130   -4.4383    0.0000 O   0  0  0  0  0  0  0  0  0  0  0  0
    2.2150   -4.4481    0.0000 O   0  0  0  0  0  0  0  0  0  0  0  0
    6.1319   -9.6834    0.0000 C   0  0  0  0  0  0  0  0  0  0  0  0
    6.1326  -11.1782    0.0000 C   0  0  0  0  0  0  0  0  0  0  0  0
    7.4330  -11.9231    0.0000 C   0  0  0  0  0  0  0  0  0  0  0  0
    8.7310  -11.1682    0.0000 C   0  0  0  0  0  0  0  0  0  0  0  0
    8.7205   -9.6603    0.0000 C   0  0  0  0  0  0  0  0  0  0  0  0
    7.4192   -8.9222    0.0000 C   0  0  0  0  0  0  0  0  0  0  0  0
   -9.4556  -11.2314    0.0000 C   0  0  0  0  0  0  0  0  0  0  0  0
    7.4379  -13.4231    0.0000 F   0  0  0  0  0  0  0  0  0  0  0  0
   10.0141   -8.9009    0.0000 F   0  0  0  0  0  0  0  0  0  0  0  0
 15 16  1  0  0  0  0
  2  8  1  0  0  0  0
 15 17  1  1  0  0  0
 16 18  2  0  0  0  0
  7  9  1  0  0  0  0
 16 19  1  0  0  0  0
  4  5  1  0  0  0  0
 17 20  1  0  0  0  0
  5 10  1  0  0  0  0
 20 21  1  0  0  0  0
  2  3  1  0  0  0  0
 21 22  1  0  0  0  0
 10 11  2  0  0  0  0
 21 23  2  0  0  0  0
  5  6  2  0  0  0  0
 19 24  1  0  0  0  0
 11 12  1  0  0  0  0
 24 25  2  0  0  0  0
  6  1  1  0  0  0  0
 25 26  1  0  0  0  0
 12 13  1  0  0  0  0
 26 27  2  0  0  0  0
  1  2  2  0  0  0  0
 27 28  1  0  0  0  0
 12 14  2  0  0  0  0
 28 29  2  0  0  0  0
 29 24  1  0  0  0  0
  1  7  1  0  0  0  0
  8 30  1  0  0  0  0
 15 13  1  0  0  0  0
 26 31  1  0  0  0  0
  3  4  2  0  0  0  0
 28 32  1  0  0  0  0
M  END
> <Value>
4.006123085058789

> <Relation>
=

> <SourceURI>
mol:CHEMBL476637

$$$$

Generated by Molecular Materials Informatics

 25 25  0  0  0  0  0  0  0  0999 V2000
    4.2016  -21.0528    0.0000 C   0  0  0  0  0  0  0  0  0  0  0  0
    4.1994  -22.5572    0.0000 C   0  0  0  0  0  0  0  0  0  0  0  0
    5.4990  -23.3079    0.0000 C   0  0  0  0  0  0  0  0  0  0  0  0
    6.8017  -22.5562    0.0000 C   0  0  0  0  0  0  0  0  0  0  0  0
    6.7965  -21.0463    0.0000 C   0  0  0  0  0  0  0  0  0  0  0  0
    5.4958  -20.3024    0.0000 C   0  0  0  0  0  0  0  0  0  0  0  0
    2.9023  -20.3032    0.0000 O   0  0  0  0  0  0  0  0  0  0  0  0
    2.8998  -23.3062    0.0000 O   0  0  0  0  0  0  0  0  0  0  0  0
    1.6034  -21.0535    0.0000 C   0  0  0  0  0  0  0  0  0  0  0  0
    8.0926  -20.2914    0.0000 C   0  0  0  0  0  0  0  0  0  0  0  0
    9.3945  -21.0364    0.0000 C   0  0  0  0  0  0  0  0  0  0  0  0
   10.6906  -20.2815    0.0000 C   0  0  0  0  0  0  0  0  0  0  0  0
   11.9926  -21.0266    0.0000 N   0  0  0  0  0  0  0  0  0  0  0  0
   10.6850  -18.7816    0.0000 O   0  0  0  0  0  0  0  0  0  0  0  0
   13.2888  -20.2719    0.0000 C   0  0  0  0  0  0  0  0  0  0  0  0
   14.5906  -21.0170    0.0000 C   0  0  0  0  0  0  0  0  0  0  0  0
   13.2831  -18.7719    0.0000 C   0  0  0  0  0  0  0  0  0  0  0  0
   14.5962  -22.5170    0.0000 O   0  0  0  0  0  0  0  0  0  0  0  0
   15.8868  -20.2621    0.0000 N   0  0  0  0  0  0  0  0  0  0  0  0
   14.5793  -18.0170    0.0000 C   0  0  0  0  0  0  0  0  0  0  0  0
   14.5737  -16.5170    0.0000 C   0  0  0  0  0  0  0  0  0  0  0  0
   15.8699  -15.7621    0.0000 O   0  0  0  0  0  0  0  0  0  0  0  0
   13.2717  -15.7719    0.0000 O   0  0  0  0  0  0  0  0  0  0  0  0
   17.1886  -21.0072    0.0000 C   0  0  0  0  0  0  0  0  0  0  0  0
    1.6014  -22.5552    0.0000 C   0  0  0  0  0  0  0  0  0  0  0  0
  6  1  1  0  0  0  0
 12 13  1  0  0  0  0
  1  2  2  0  0  0  0
 12 14  2  0  0  0  0
  1  7  1  0  0  0  0
 15 13  1  0  0  0  0
  3  4  2  0  0  0  0
 15 16  1  0  0  0  0
  2  8  1  0  0  0  0
 15 17  1  1  0  0  0
 16 18  2  0  0  0  0
  7  9  1  0  0  0  0
 16 19  1  0  0  0  0
  4  5  1  0  0  0  0
 17 20  1  0  0  0  0
  5 10  1  0  0  0  0
 20 21  1  0  0  0  0
  2  3  1  0  0  0  0
 21 22  1  0  0  0  0
 10 11  2  0  0  0  0
 21 23  2  0  0  0  0
  5  6  2  0  0  0  0
 19 24  1  0  0  0  0
 11 12  1  0  0  0  0
  8 25  1  0  0  0  0
M  END
> <Value>
3.90031935889075

> <Relation>
=

> <SourceURI>
mol:CHEMBL491451

$$$$

Generated by Molecular Materials Informatics

 31 32  0  0  0  0  0  0  0  0999 V2000
   -6.6074  -20.6285    0.0000 C   0  0  0  0  0  0  0  0  0  0  0  0
   -6.6095  -22.1329    0.0000 C   0  0  0  0  0  0  0  0  0  0  0  0
   -5.3099  -22.8836    0.0000 C   0  0  0  0  0  0  0  0  0  0  0  0
   -4.0072  -22.1320    0.0000 C   0  0  0  0  0  0  0  0  0  0  0  0
   -4.0124  -20.6220    0.0000 C   0  0  0  0  0  0  0  0  0  0  0  0
   -5.3132  -19.8780    0.0000 C   0  0  0  0  0  0  0  0  0  0  0  0
   -7.9066  -19.8789    0.0000 O   0  0  0  0  0  0  0  0  0  0  0  0
   -7.9092  -22.8818    0.0000 O   0  0  0  0  0  0  0  0  0  0  0  0
   -9.2056  -20.6293    0.0000 C   0  0  0  0  0  0  0  0  0  0  0  0
   -2.7162  -19.8671    0.0000 C   0  0  0  0  0  0  0  0  0  0  0  0
   -1.4142  -20.6122    0.0000 C   0  0  0  0  0  0  0  0  0  0  0  0
   -0.1181  -19.8573    0.0000 C   0  0  0  0  0  0  0  0  0  0  0  0
    1.1838  -20.6023    0.0000 N   0  0  0  0  0  0  0  0  0  0  0  0
   -0.1237  -18.3572    0.0000 O   0  0  0  0  0  0  0  0  0  0  0  0
    2.4800  -19.8474    0.0000 C   0  0  0  0  0  0  0  0  0  0  0  0
    3.7818  -20.5925    0.0000 C   0  0  0  0  0  0  0  0  0  0  0  0
    2.4743  -18.3474    0.0000 C   0  0  0  0  0  0  0  0  0  0  0  0
    3.7874  -22.0925    0.0000 O   0  0  0  0  0  0  0  0  0  0  0  0
    5.0780  -19.8376    0.0000 N   0  0  0  0  0  0  0  0  0  0  0  0
    3.7705  -17.5925    0.0000 C   0  0  0  0  0  0  0  0  0  0  0  0
    3.7649  -16.0925    0.0000 C   0  0  0  0  0  0  0  0  0  0  0  0
    5.0611  -15.3378    0.0000 O   0  0  0  0  0  0  0  0  0  0  0  0
    2.4631  -15.3474    0.0000 O   0  0  0  0  0  0  0  0  0  0  0  0
    6.3800  -20.5827    0.0000 C   0  0  0  0  0  0  0  0  0  0  0  0
    6.3807  -22.0776    0.0000 C   0  0  0  0  0  0  0  0  0  0  0  0
   -9.2076  -22.1309    0.0000 C   0  0  0  0  0  0  0  0  0  0  0  0
    5.0838  -22.8244    0.0000 C   0  0  0  0  0  0  0  0  0  0  0  0
    5.0840  -24.3176    0.0000 C   0  0  0  0  0  0  0  0  0  0  0  0
    6.3800  -25.0658    0.0000 C   0  0  0  0  0  0  0  0  0  0  0  0
    7.6784  -24.3098    0.0000 C   0  0  0  0  0  0  0  0  0  0  0  0
    7.6718  -22.8189    0.0000 C   0  0  0  0  0  0  0  0  0  0  0  0
  3  4  2  0  0  0  0
 15 16  1  0  0  0  0
  2  8  1  0  0  0  0
 15 17  1  1  0  0  0
 16 18  2  0  0  0  0
  7  9  1  0  0  0  0
 16 19  1  0  0  0  0
  4  5  1  0  0  0  0
 17 20  1  0  0  0  0
  5 10  1  0  0  0  0
 20 21  1  0  0  0  0
  2  3  1  0  0  0  0
 21 22  1  0  0  0  0
 10 11  2  0  0  0  0
 21 23  2  0  0  0  0
  5  6  2  0  0  0  0
 19 24  1  0  0  0  0
 11 12  1  0  0  0  0
 24 25  1  0  0  0  0
  6  1  1  0  0  0  0
  8 26  1  0  0  0  0
 12 13  1  0  0  0  0
 25 27  2  0  0  0  0
  1  2  2  0  0  0  0
 27 28  1  0  0  0  0
 12 14  2  0  0  0  0
 28 29  2  0  0  0  0
  1  7  1  0  0  0  0
 29 30  1  0  0  0  0
 15 13  1  0  0  0  0
 30 31  2  0  0  0  0
 31 25  1  0  0  0  0
M  END
> <Value>
3.750557038557418

> <Relation>
=

> <SourceURI>
mol:CHEMBL491450

$$$$

Generated by Molecular Materials Informatics

 26 26  0  0  0  0  0  0  0  0999 V2000
   -6.8497  -27.3653    0.0000 C   0  0  0  0  0  0  0  0  0  0  0  0
   -6.8519  -28.8697    0.0000 C   0  0  0  0  0  0  0  0  0  0  0  0
   -5.5522  -29.6204    0.0000 C   0  0  0  0  0  0  0  0  0  0  0  0
   -4.2495  -28.8687    0.0000 C   0  0  0  0  0  0  0  0  0  0  0  0
   -4.2548  -27.3588    0.0000 C   0  0  0  0  0  0  0  0  0  0  0  0
   -5.5555  -26.6149    0.0000 C   0  0  0  0  0  0  0  0  0  0  0  0
   -8.1489  -26.6157    0.0000 O   0  0  0  0  0  0  0  0  0  0  0  0
   -8.1515  -29.6187    0.0000 O   0  0  0  0  0  0  0  0  0  0  0  0
   -9.4478  -27.3660    0.0000 C   0  0  0  0  0  0  0  0  0  0  0  0
   -2.9586  -26.6039    0.0000 C   0  0  0  0  0  0  0  0  0  0  0  0
   -1.6568  -27.3489    0.0000 C   0  0  0  0  0  0  0  0  0  0  0  0
   -0.3606  -26.5940    0.0000 C   0  0  0  0  0  0  0  0  0  0  0  0
    0.9413  -27.3391    0.0000 N   0  0  0  0  0  0  0  0  0  0  0  0
   -0.3663  -25.0941    0.0000 O   0  0  0  0  0  0  0  0  0  0  0  0
    2.2375  -26.5844    0.0000 C   0  0  0  0  0  0  0  0  0  0  0  0
    3.5393  -27.3295    0.0000 C   0  0  0  0  0  0  0  0  0  0  0  0
    2.2319  -25.0844    0.0000 C   0  0  0  0  0  0  0  0  0  0  0  0
    3.5450  -28.8295    0.0000 O   0  0  0  0  0  0  0  0  0  0  0  0
    4.8355  -26.5746    0.0000 N   0  0  0  0  0  0  0  0  0  0  0  0
    3.5281  -24.3295    0.0000 C   0  0  0  0  0  0  0  0  0  0  0  0
    3.5224  -22.8295    0.0000 C   0  0  0  0  0  0  0  0  0  0  0  0
    4.8186  -22.0746    0.0000 O   0  0  0  0  0  0  0  0  0  0  0  0
    2.2204  -22.0844    0.0000 O   0  0  0  0  0  0  0  0  0  0  0  0
    6.1373  -27.3197    0.0000 C   0  0  0  0  0  0  0  0  0  0  0  0
   -9.4498  -28.8677    0.0000 C   0  0  0  0  0  0  0  0  0  0  0  0
    6.1429  -28.8197    0.0000 C   0  0  0  0  0  0  0  0  0  0  0  0
 12 13  1  0  0  0  0
  1  2  2  0  0  0  0
 12 14  2  0  0  0  0
  1  7  1  0  0  0  0
 15 13  1  0  0  0  0
  3  4  2  0  0  0  0
 15 16  1  0  0  0  0
  2  8  1  0  0  0  0
 15 17  1  1  0  0  0
 16 18  2  0  0  0  0
  7  9  1  0  0  0  0
 16 19  1  0  0  0  0
  4  5  1  0  0  0  0
 17 20  1  0  0  0  0
  5 10  1  0  0  0  0
 20 21  1  0  0  0  0
  2  3  1  0  0  0  0
 21 22  1  0  0  0  0
 10 11  2  0  0  0  0
 21 23  2  0  0  0  0
  5  6  2  0  0  0  0
 19 24  1  0  0  0  0
 11 12  1  0  0  0  0
  8 25  1  0  0  0  0
  6  1  1  0  0  0  0
 24 26  1  0  0  0  0
M  END
> <Value>
3.7344746647809264

> <Relation>
=

> <SourceURI>
mol:CHEMBL491650

$$$$

Generated by Molecular Materials Informatics

 28 28  0  0  0  0  0  0  0  0999 V2000
   13.4906  -26.5113    0.0000 C   0  0  0  0  0  0  0  0  0  0  0  0
   13.4884  -28.0157    0.0000 C   0  0  0  0  0  0  0  0  0  0  0  0
   14.7881  -28.7662    0.0000 C   0  0  0  0  0  0  0  0  0  0  0  0
   16.0908  -28.0148    0.0000 C   0  0  0  0  0  0  0  0  0  0  0  0
   16.0855  -26.5046    0.0000 C   0  0  0  0  0  0  0  0  0  0  0  0
   14.7848  -25.7608    0.0000 C   0  0  0  0  0  0  0  0  0  0  0  0
   12.1913  -25.7617    0.0000 O   0  0  0  0  0  0  0  0  0  0  0  0
   12.1888  -28.7646    0.0000 O   0  0  0  0  0  0  0  0  0  0  0  0
   10.8924  -26.5119    0.0000 C   0  0  0  0  0  0  0  0  0  0  0  0
   17.3817  -25.7499    0.0000 C   0  0  0  0  0  0  0  0  0  0  0  0
   18.6837  -26.4949    0.0000 C   0  0  0  0  0  0  0  0  0  0  0  0
   19.9799  -25.7400    0.0000 C   0  0  0  0  0  0  0  0  0  0  0  0
   21.2817  -26.4851    0.0000 N   0  0  0  0  0  0  0  0  0  0  0  0
   19.9743  -24.2400    0.0000 O   0  0  0  0  0  0  0  0  0  0  0  0
   22.5779  -25.7302    0.0000 C   0  0  0  0  0  0  0  0  0  0  0  0
   23.8797  -26.4753    0.0000 C   0  0  0  0  0  0  0  0  0  0  0  0
   22.5723  -24.2302    0.0000 C   0  0  0  0  0  0  0  0  0  0  0  0
   23.8854  -27.9753    0.0000 O   0  0  0  0  0  0  0  0  0  0  0  0
   25.1759  -25.7204    0.0000 N   0  0  0  0  0  0  0  0  0  0  0  0
   23.8685  -23.4753    0.0000 C   0  0  0  0  0  0  0  0  0  0  0  0
   23.8628  -21.9753    0.0000 C   0  0  0  0  0  0  0  0  0  0  0  0
   25.1590  -21.2204    0.0000 O   0  0  0  0  0  0  0  0  0  0  0  0
   22.5610  -21.2302    0.0000 O   0  0  0  0  0  0  0  0  0  0  0  0
   26.4779  -26.4655    0.0000 C   0  0  0  0  0  0  0  0  0  0  0  0
   10.8904  -28.0135    0.0000 C   0  0  0  0  0  0  0  0  0  0  0  0
   26.4836  -27.9655    0.0000 C   0  0  0  0  0  0  0  0  0  0  0  0
   27.7854  -28.7106    0.0000 C   0  0  0  0  0  0  0  0  0  0  0  0
   25.1874  -28.7204    0.0000 C   0  0  0  0  0  0  0  0  0  0  0  0
 12 14  2  0  0  0  0
  1  7  1  0  0  0  0
 15 13  1  0  0  0  0
  3  4  2  0  0  0  0
 15 16  1  0  0  0  0
  2  8  1  0  0  0  0
 15 17  1  1  0  0  0
 16 18  2  0  0  0  0
  7  9  1  0  0  0  0
 16 19  1  0  0  0  0
  4  5  1  0  0  0  0
 17 20  1  0  0  0  0
  5 10  1  0  0  0  0
 20 21  1  0  0  0  0
  2  3  1  0  0  0  0
 21 22  1  0  0  0  0
 10 11  2  0  0  0  0
 21 23  2  0  0  0  0
  5  6  2  0  0  0  0
 19 24  1  0  0  0  0
 11 12  1  0  0  0  0
  8 25  1  0  0  0  0
  6  1  1  0  0  0  0
 24 26  1  0  0  0  0
 12 13  1  0  0  0  0
 26 27  1  0  0  0  0
  1  2  2  0  0  0  0
 26 28  1  0  0  0  0
M  END
> <Value>
3.6836102489268043

> <Relation>
=

> <SourceURI>
mol:CHEMBL490438

$$$$

Generated by Molecular Materials Informatics

 44 44  0  0  0  0  0  0  0  0999 V2000
    6.9382  -12.6710    0.0000 N   0  0  0  0  0  0  0  0  0  0  0  0
    6.9384  -11.1712    0.0000 C   0  0  0  0  0  0  0  0  0  0  0  0
    8.2375  -10.4214    0.0000 C   0  0  0  0  0  0  0  0  0  0  0  0
    9.5366  -11.1714    0.0000 O   0  0  0  0  0  0  0  0  0  0  0  0
    8.2377   -8.9212    0.0000 O   0  0  0  0  0  0  0  0  0  0  0  0
    9.5368   -8.1713    0.0000 C   0  0  0  0  0  0  0  0  0  0  0  0
    5.6395  -10.4210    0.0000 C   0  0  0  0  0  0  0  0  0  0  0  0
    5.6395   -8.9208    0.0000 C   0  0  0  0  0  0  0  0  0  0  0  0
    6.9386   -8.1710    0.0000 O   0  0  0  0  0  0  0  0  0  0  0  0
    4.3406   -8.1708    0.0000 O   0  0  0  0  0  0  0  0  0  0  0  0
    3.0415   -8.9206    0.0000 C   0  0  0  0  0  0  0  0  0  0  0  0
   -4.7289  -17.9612    0.0000 C   0  0  0  0  0  0  0  0  0  0  0  0
   -4.7311  -19.4656    0.0000 C   0  0  0  0  0  0  0  0  0  0  0  0
   -3.4315  -20.2161    0.0000 C   0  0  0  0  0  0  0  0  0  0  0  0
   -2.1287  -19.4647    0.0000 C   0  0  0  0  0  0  0  0  0  0  0  0
   -2.1340  -17.9547    0.0000 C   0  0  0  0  0  0  0  0  0  0  0  0
   -3.4347  -17.2107    0.0000 C   0  0  0  0  0  0  0  0  0  0  0  0
   -6.0282  -17.2116    0.0000 O   0  0  0  0  0  0  0  0  0  0  0  0
   -6.0307  -20.2145    0.0000 O   0  0  0  0  0  0  0  0  0  0  0  0
   -7.3271  -17.9618    0.0000 C   0  0  0  0  0  0  0  0  0  0  0  0
   -0.8378  -17.1998    0.0000 C   0  0  0  0  0  0  0  0  0  0  0  0
    0.4640  -17.9448    0.0000 C   0  0  0  0  0  0  0  0  0  0  0  0
    1.7602  -17.1899    0.0000 C   0  0  0  0  0  0  0  0  0  0  0  0
    3.0622  -17.9350    0.0000 N   0  0  0  0  0  0  0  0  0  0  0  0
    1.7546  -15.6899    0.0000 O   0  0  0  0  0  0  0  0  0  0  0  0
    4.3584  -17.1801    0.0000 C   0  0  0  0  0  0  0  0  0  0  0  0
    5.6602  -17.9252    0.0000 C   0  0  0  0  0  0  0  0  0  0  0  0
    4.3528  -15.6801    0.0000 C   0  0  0  0  0  0  0  0  0  0  0  0
    5.6659  -19.4252    0.0000 O   0  0  0  0  0  0  0  0  0  0  0  0
    6.9564  -17.1703    0.0000 N   0  0  0  0  0  0  0  0  0  0  0  0
    5.6489  -14.9252    0.0000 C   0  0  0  0  0  0  0  0  0  0  0  0
    5.6433  -13.4252    0.0000 C   0  0  0  0  0  0  0  0  0  0  0  0
    4.3413  -12.6801    0.0000 O   0  0  0  0  0  0  0  0  0  0  0  0
    8.2582  -17.9154    0.0000 C   0  0  0  0  0  0  0  0  0  0  0  0
   -7.3291  -19.4634    0.0000 C   0  0  0  0  0  0  0  0  0  0  0  0
    8.2639  -19.4154    0.0000 C   0  0  0  0  0  0  0  0  0  0  0  0
    6.9677  -20.1703    0.0000 O   0  0  0  0  0  0  0  0  0  0  0  0
    9.5659  -20.1605    0.0000 O   0  0  0  0  0  0  0  0  0  0  0  0
    9.5715  -21.6605    0.0000 C   0  0  0  0  0  0  0  0  0  0  0  0
    9.5544  -17.1605    0.0000 C   0  0  0  0  0  0  0  0  0  0  0  0
   10.8564  -17.9056    0.0000 C   0  0  0  0  0  0  0  0  0  0  0  0
   10.8621  -19.4056    0.0000 O   0  0  0  0  0  0  0  0  0  0  0  0
   12.1526  -17.1507    0.0000 O   0  0  0  0  0  0  0  0  0  0  0  0
   12.1470  -15.6507    0.0000 C   0  0  0  0  0  0  0  0  0  0  0  0
  1  2  1  0  0  0  0
  2  3  1  0  0  0  0
  3  4  2  0  0  0  0
  3  5  1  0  0  0  0
  5  6  1  0  0  0  0
  2  7  1  0  0  0  0
  7  8  1  0  0  0  0
  8  9  2  0  0  0  0
  8 10  1  0  0  0  0
 10 11  1  0  0  0  0
 26 28  1  1  0  0  0
 27 29  2  0  0  0  0
 18 20  1  0  0  0  0
 27 30  1  0  0  0  0
 15 16  1  0  0  0  0
 28 31  1  0  0  0  0
 16 21  1  0  0  0  0
 31 32  1  0  0  0  0
 13 14  1  0  0  0  0
 32  1  1  0  0  0  0
 21 22  2  0  0  0  0
 32 33  2  0  0  0  0
 16 17  2  0  0  0  0
 30 34  1  0  0  0  0
 22 23  1  0  0  0  0
 19 35  1  0  0  0  0
 17 12  1  0  0  0  0
 34 36  1  0  0  0  0
 23 24  1  0  0  0  0
 36 37  2  0  0  0  0
 12 13  2  0  0  0  0
 36 38  1  0  0  0  0
 23 25  2  0  0  0  0
 38 39  1  0  0  0  0
 12 18  1  0  0  0  0
 34 40  1  0  0  0  0
 26 24  1  0  0  0  0
 40 41  1  0  0  0  0
 14 15  2  0  0  0  0
 41 42  2  0  0  0  0
 26 27  1  0  0  0  0
 41 43  1  0  0  0  0
 13 19  1  0  0  0  0
 43 44  1  0  0  0  0
M  END
> <Value>
3.6712127996454655

> <Relation>
=

> <SourceURI>
mol:CHEMBL451393

$$$$

Generated by Molecular Materials Informatics

 27 27  0  0  0  0  0  0  0  0999 V2000
    2.8114  -26.5820    0.0000 C   0  0  0  0  0  0  0  0  0  0  0  0
    2.8094  -28.0864    0.0000 C   0  0  0  0  0  0  0  0  0  0  0  0
    4.1090  -28.8371    0.0000 C   0  0  0  0  0  0  0  0  0  0  0  0
    5.4116  -28.0855    0.0000 C   0  0  0  0  0  0  0  0  0  0  0  0
    5.4065  -26.5755    0.0000 C   0  0  0  0  0  0  0  0  0  0  0  0
    4.1058  -25.8315    0.0000 C   0  0  0  0  0  0  0  0  0  0  0  0
    1.5123  -25.8324    0.0000 O   0  0  0  0  0  0  0  0  0  0  0  0
    1.5097  -28.8353    0.0000 O   0  0  0  0  0  0  0  0  0  0  0  0
    0.2134  -26.5828    0.0000 C   0  0  0  0  0  0  0  0  0  0  0  0
    6.7027  -25.8206    0.0000 C   0  0  0  0  0  0  0  0  0  0  0  0
    8.0045  -26.5657    0.0000 C   0  0  0  0  0  0  0  0  0  0  0  0
    9.3007  -25.8108    0.0000 C   0  0  0  0  0  0  0  0  0  0  0  0
   10.6025  -26.5558    0.0000 N   0  0  0  0  0  0  0  0  0  0  0  0
    9.2951  -24.3107    0.0000 O   0  0  0  0  0  0  0  0  0  0  0  0
   11.8987  -25.8009    0.0000 C   0  0  0  0  0  0  0  0  0  0  0  0
   13.2007  -26.5460    0.0000 C   0  0  0  0  0  0  0  0  0  0  0  0
   11.8931  -24.3009    0.0000 C   0  0  0  0  0  0  0  0  0  0  0  0
   13.2064  -28.0460    0.0000 O   0  0  0  0  0  0  0  0  0  0  0  0
   14.4969  -25.7911    0.0000 N   0  0  0  0  0  0  0  0  0  0  0  0
   13.1893  -23.5460    0.0000 C   0  0  0  0  0  0  0  0  0  0  0  0
   13.1836  -22.0460    0.0000 C   0  0  0  0  0  0  0  0  0  0  0  0
   14.4798  -21.2913    0.0000 O   0  0  0  0  0  0  0  0  0  0  0  0
   11.8818  -21.3009    0.0000 O   0  0  0  0  0  0  0  0  0  0  0  0
   15.7987  -26.5362    0.0000 C   0  0  0  0  0  0  0  0  0  0  0  0
    0.2112  -28.0844    0.0000 C   0  0  0  0  0  0  0  0  0  0  0  0
   15.8044  -28.0362    0.0000 C   0  0  0  0  0  0  0  0  0  0  0  0
   17.1062  -28.7813    0.0000 C   0  0  0  0  0  0  0  0  0  0  0  0
  1  2  2  0  0  0  0
 12 14  2  0  0  0  0
  1  7  1  0  0  0  0
 15 13  1  0  0  0  0
  3  4  2  0  0  0  0
 15 16  1  0  0  0  0
  2  8  1  0  0  0  0
 15 17  1  1  0  0  0
 16 18  2  0  0  0  0
  7  9  1  0  0  0  0
 16 19  1  0  0  0  0
  4  5  1  0  0  0  0
 17 20  1  0  0  0  0
  5 10  1  0  0  0  0
 20 21  1  0  0  0  0
  2  3  1  0  0  0  0
 21 22  1  0  0  0  0
 10 11  2  0  0  0  0
 21 23  2  0  0  0  0
  5  6  2  0  0  0  0
 19 24  1  0  0  0  0
 11 12  1  0  0  0  0
  8 25  1  0  0  0  0
  6  1  1  0  0  0  0
 24 26  1  0  0  0  0
 12 13  1  0  0  0  0
 26 27  1  0  0  0  0
M  END
> <Value>
3.6243363860391145

> <Relation>
=

> <SourceURI>
mol:CHEMBL491651

$$$$

Generated by Molecular Materials Informatics

 38 40  0  0  0  0  0  0  0  0999 V2000
   -7.1504  -17.4603    0.0000 C   0  0  0  0  0  0  0  0  0  0  0  0
   -7.1526  -18.9646    0.0000 C   0  0  0  0  0  0  0  0  0  0  0  0
   -5.8530  -19.7154    0.0000 C   0  0  0  0  0  0  0  0  0  0  0  0
   -4.5502  -18.9637    0.0000 C   0  0  0  0  0  0  0  0  0  0  0  0
   -4.5555  -17.4537    0.0000 C   0  0  0  0  0  0  0  0  0  0  0  0
   -5.8562  -16.7097    0.0000 C   0  0  0  0  0  0  0  0  0  0  0  0
   -8.4497  -16.7106    0.0000 O   0  0  0  0  0  0  0  0  0  0  0  0
   -8.4523  -19.7135    0.0000 O   0  0  0  0  0  0  0  0  0  0  0  0
   -9.7486  -17.4610    0.0000 C   0  0  0  0  0  0  0  0  0  0  0  0
   -3.2593  -16.6988    0.0000 C   0  0  0  0  0  0  0  0  0  0  0  0
   -1.9575  -17.4439    0.0000 C   0  0  0  0  0  0  0  0  0  0  0  0
   -0.6613  -16.6890    0.0000 C   0  0  0  0  0  0  0  0  0  0  0  0
    0.6407  -17.4341    0.0000 N   0  0  0  0  0  0  0  0  0  0  0  0
   -0.6669  -15.1890    0.0000 O   0  0  0  0  0  0  0  0  0  0  0  0
    1.9369  -16.6792    0.0000 C   0  0  0  0  0  0  0  0  0  0  0  0
    3.2387  -17.4243    0.0000 C   0  0  0  0  0  0  0  0  0  0  0  0
    1.9313  -15.1792    0.0000 C   0  0  0  0  0  0  0  0  0  0  0  0
    3.2444  -18.9243    0.0000 O   0  0  0  0  0  0  0  0  0  0  0  0
    4.5349  -16.6693    0.0000 N   0  0  0  0  0  0  0  0  0  0  0  0
    3.2275  -14.4242    0.0000 C   0  0  0  0  0  0  0  0  0  0  0  0
    3.2218  -12.9242    0.0000 C   0  0  0  0  0  0  0  0  0  0  0  0
    4.5180  -12.1695    0.0000 N   0  0  0  0  0  0  0  0  0  0  0  0
    1.9198  -12.1791    0.0000 O   0  0  0  0  0  0  0  0  0  0  0  0
    5.8367  -17.4144    0.0000 C   0  0  0  0  0  0  0  0  0  0  0  0
   -9.7506  -18.9626    0.0000 C   0  0  0  0  0  0  0  0  0  0  0  0
    5.8198  -12.9146    0.0000 C   0  0  0  0  0  0  0  0  0  0  0  0
    5.8331  -18.9110    0.0000 C   0  0  0  0  0  0  0  0  0  0  0  0
    7.1335  -19.6561    0.0000 C   0  0  0  0  0  0  0  0  0  0  0  0
    8.4315  -18.9010    0.0000 C   0  0  0  0  0  0  0  0  0  0  0  0
    8.4209  -17.3934    0.0000 C   0  0  0  0  0  0  0  0  0  0  0  0
    7.1195  -16.6552    0.0000 C   0  0  0  0  0  0  0  0  0  0  0  0
    5.8180  -14.4110    0.0000 C   0  0  0  0  0  0  0  0  0  0  0  0
    7.1182  -15.1561    0.0000 C   0  0  0  0  0  0  0  0  0  0  0  0
    8.4162  -14.4010    0.0000 C   0  0  0  0  0  0  0  0  0  0  0  0
    8.4059  -12.8933    0.0000 C   0  0  0  0  0  0  0  0  0  0  0  0
    7.1044  -12.1551    0.0000 C   0  0  0  0  0  0  0  0  0  0  0  0
    9.7342  -19.6445    0.0000 C   0  0  0  0  0  0  0  0  0  0  0  0
    9.7191  -15.1444    0.0000 C   0  0  0  0  0  0  0  0  0  0  0  0
 16 19  1  0  0  0  0
  4  5  1  0  0  0  0
 17 20  1  0  0  0  0
  5 10  1  0  0  0  0
 20 21  1  0  0  0  0
  2  3  1  0  0  0  0
 21 22  1  0  0  0  0
 10 11  2  0  0  0  0
 21 23  2  0  0  0  0
  5  6  2  0  0  0  0
 19 24  1  0  0  0  0
 11 12  1  0  0  0  0
  8 25  1  0  0  0  0
  6  1  1  0  0  0  0
 22 26  1  0  0  0  0
 12 13  1  0  0  0  0
 24 27  2  0  0  0  0
  1  2  2  0  0  0  0
 27 28  1  0  0  0  0
 12 14  2  0  0  0  0
 28 29  2  0  0  0  0
  1  7  1  0  0  0  0
 29 30  1  0  0  0  0
 15 13  1  0  0  0  0
 30 31  2  0  0  0  0
 31 24  1  0  0  0  0
  3  4  2  0  0  0  0
 26 32  2  0  0  0  0
 15 16  1  0  0  0  0
 32 33  1  0  0  0  0
  2  8  1  0  0  0  0
 33 34  2  0  0  0  0
 15 17  1  1  0  0  0
 34 35  1  0  0  0  0
 35 36  2  0  0  0  0
 36 26  1  0  0  0  0
 16 18  2  0  0  0  0
 29 37  1  0  0  0  0
  7  9  1  0  0  0  0
 34 38  1  0  0  0  0
M  END
> <Value>
3.4753442876422227

> <Relation>
=

> <SourceURI>
mol:CHEMBL489237

$$$$

Generated by Molecular Materials Informatics

 38 40  0  0  0  0  0  0  0  0999 V2000
    4.7621  -17.0853    0.0000 C   0  0  0  0  0  0  0  0  0  0  0  0
    4.7599  -18.5896    0.0000 C   0  0  0  0  0  0  0  0  0  0  0  0
    6.0595  -19.3404    0.0000 C   0  0  0  0  0  0  0  0  0  0  0  0
    7.3623  -18.5887    0.0000 C   0  0  0  0  0  0  0  0  0  0  0  0
    7.3570  -17.0787    0.0000 C   0  0  0  0  0  0  0  0  0  0  0  0
    6.0563  -16.3347    0.0000 C   0  0  0  0  0  0  0  0  0  0  0  0
    3.4628  -16.3356    0.0000 O   0  0  0  0  0  0  0  0  0  0  0  0
    3.4603  -19.3385    0.0000 O   0  0  0  0  0  0  0  0  0  0  0  0
    2.1639  -17.0860    0.0000 C   0  0  0  0  0  0  0  0  0  0  0  0
    8.6532  -16.3238    0.0000 C   0  0  0  0  0  0  0  0  0  0  0  0
    9.9550  -17.0689    0.0000 C   0  0  0  0  0  0  0  0  0  0  0  0
   11.2512  -16.3140    0.0000 C   0  0  0  0  0  0  0  0  0  0  0  0
   12.5532  -17.0591    0.0000 N   0  0  0  0  0  0  0  0  0  0  0  0
   11.2456  -14.8140    0.0000 O   0  0  0  0  0  0  0  0  0  0  0  0
   13.8494  -16.3042    0.0000 C   0  0  0  0  0  0  0  0  0  0  0  0
   15.1512  -17.0493    0.0000 C   0  0  0  0  0  0  0  0  0  0  0  0
   13.8438  -14.8042    0.0000 C   0  0  0  0  0  0  0  0  0  0  0  0
   15.1569  -18.5493    0.0000 O   0  0  0  0  0  0  0  0  0  0  0  0
   16.4474  -16.2943    0.0000 N   0  0  0  0  0  0  0  0  0  0  0  0
   15.1400  -14.0492    0.0000 C   0  0  0  0  0  0  0  0  0  0  0  0
   15.1343  -12.5492    0.0000 C   0  0  0  0  0  0  0  0  0  0  0  0
   16.4305  -11.7945    0.0000 N   0  0  0  0  0  0  0  0  0  0  0  0
   13.8323  -11.8041    0.0000 O   0  0  0  0  0  0  0  0  0  0  0  0
   17.7492  -17.0394    0.0000 C   0  0  0  0  0  0  0  0  0  0  0  0
    2.1619  -18.5876    0.0000 C   0  0  0  0  0  0  0  0  0  0  0  0
   17.7323  -12.5396    0.0000 C   0  0  0  0  0  0  0  0  0  0  0  0
   17.7456  -18.5360    0.0000 C   0  0  0  0  0  0  0  0  0  0  0  0
   19.0460  -19.2811    0.0000 C   0  0  0  0  0  0  0  0  0  0  0  0
   20.3440  -18.5260    0.0000 C   0  0  0  0  0  0  0  0  0  0  0  0
   20.3334  -17.0183    0.0000 C   0  0  0  0  0  0  0  0  0  0  0  0
   19.0320  -16.2802    0.0000 C   0  0  0  0  0  0  0  0  0  0  0  0
   17.7305  -14.0360    0.0000 C   0  0  0  0  0  0  0  0  0  0  0  0
   19.0307  -14.7811    0.0000 C   0  0  0  0  0  0  0  0  0  0  0  0
   20.3287  -14.0260    0.0000 C   0  0  0  0  0  0  0  0  0  0  0  0
   20.3183  -12.5183    0.0000 C   0  0  0  0  0  0  0  0  0  0  0  0
   19.0169  -11.7801    0.0000 C   0  0  0  0  0  0  0  0  0  0  0  0
   21.6467  -19.2695    0.0000 F   0  0  0  0  0  0  0  0  0  0  0  0
   21.6316  -14.7694    0.0000 F   0  0  0  0  0  0  0  0  0  0  0  0
 16 19  1  0  0  0  0
  4  5  1  0  0  0  0
 17 20  1  0  0  0  0
  5 10  1  0  0  0  0
 20 21  1  0  0  0  0
  2  3  1  0  0  0  0
 21 22  1  0  0  0  0
 10 11  2  0  0  0  0
 21 23  2  0  0  0  0
  5  6  2  0  0  0  0
 19 24  1  0  0  0  0
 11 12  1  0  0  0  0
  8 25  1  0  0  0  0
  6  1  1  0  0  0  0
 22 26  1  0  0  0  0
 12 13  1  0  0  0  0
 24 27  2  0  0  0  0
  1  2  2  0  0  0  0
 27 28  1  0  0  0  0
 12 14  2  0  0  0  0
 28 29  2  0  0  0  0
  1  7  1  0  0  0  0
 29 30  1  0  0  0  0
 15 13  1  0  0  0  0
 30 31  2  0  0  0  0
 31 24  1  0  0  0  0
  3  4  2  0  0  0  0
 26 32  2  0  0  0  0
 15 16  1  0  0  0  0
 32 33  1  0  0  0  0
  2  8  1  0  0  0  0
 33 34  2  0  0  0  0
 15 17  1  1  0  0  0
 34 35  1  0  0  0  0
 35 36  2  0  0  0  0
 36 26  1  0  0  0  0
 16 18  2  0  0  0  0
 29 37  1  0  0  0  0
  7  9  1  0  0  0  0
 34 38  1  0  0  0  0
M  END
> <Value>
3.430275050773841

> <Relation>
=

> <SourceURI>
mol:CHEMBL489238

$$$$

Generated by Molecular Materials Informatics

 38 40  0  0  0  0  0  0  0  0999 V2000
   -7.1922  -22.7395    0.0000 C   0  0  0  0  0  0  0  0  0  0  0  0
   -7.1943  -24.2439    0.0000 C   0  0  0  0  0  0  0  0  0  0  0  0
   -5.8947  -24.9945    0.0000 C   0  0  0  0  0  0  0  0  0  0  0  0
   -4.5920  -24.2430    0.0000 C   0  0  0  0  0  0  0  0  0  0  0  0
   -4.5972  -22.7330    0.0000 C   0  0  0  0  0  0  0  0  0  0  0  0
   -5.8980  -21.9890    0.0000 C   0  0  0  0  0  0  0  0  0  0  0  0
   -8.4914  -21.9899    0.0000 O   0  0  0  0  0  0  0  0  0  0  0  0
   -8.4940  -24.9928    0.0000 O   0  0  0  0  0  0  0  0  0  0  0  0
   -9.7904  -22.7401    0.0000 C   0  0  0  0  0  0  0  0  0  0  0  0
   -3.3011  -21.9781    0.0000 C   0  0  0  0  0  0  0  0  0  0  0  0
   -1.9990  -22.7232    0.0000 C   0  0  0  0  0  0  0  0  0  0  0  0
   -0.7029  -21.9683    0.0000 C   0  0  0  0  0  0  0  0  0  0  0  0
    0.5990  -22.7134    0.0000 N   0  0  0  0  0  0  0  0  0  0  0  0
   -0.7085  -20.4683    0.0000 O   0  0  0  0  0  0  0  0  0  0  0  0
    1.8952  -21.9584    0.0000 C   0  0  0  0  0  0  0  0  0  0  0  0
    3.1970  -22.7035    0.0000 C   0  0  0  0  0  0  0  0  0  0  0  0
    1.8895  -20.4584    0.0000 C   0  0  0  0  0  0  0  0  0  0  0  0
    3.2026  -24.2036    0.0000 O   0  0  0  0  0  0  0  0  0  0  0  0
    4.4932  -21.9486    0.0000 N   0  0  0  0  0  0  0  0  0  0  0  0
    3.1857  -19.7035    0.0000 C   0  0  0  0  0  0  0  0  0  0  0  0
    3.1801  -18.2035    0.0000 C   0  0  0  0  0  0  0  0  0  0  0  0
    4.4763  -17.4486    0.0000 N   0  0  0  0  0  0  0  0  0  0  0  0
    1.8783  -17.4584    0.0000 O   0  0  0  0  0  0  0  0  0  0  0  0
    5.7952  -22.6937    0.0000 C   0  0  0  0  0  0  0  0  0  0  0  0
   -9.7924  -24.2417    0.0000 C   0  0  0  0  0  0  0  0  0  0  0  0
    5.7781  -18.1937    0.0000 C   0  0  0  0  0  0  0  0  0  0  0  0
    5.7914  -24.1903    0.0000 C   0  0  0  0  0  0  0  0  0  0  0  0
    7.0917  -24.9352    0.0000 C   0  0  0  0  0  0  0  0  0  0  0  0
    8.3897  -24.1803    0.0000 C   0  0  0  0  0  0  0  0  0  0  0  0
    8.3792  -22.6725    0.0000 C   0  0  0  0  0  0  0  0  0  0  0  0
    7.0779  -21.9343    0.0000 C   0  0  0  0  0  0  0  0  0  0  0  0
    5.7763  -19.6903    0.0000 C   0  0  0  0  0  0  0  0  0  0  0  0
    7.0766  -20.4352    0.0000 C   0  0  0  0  0  0  0  0  0  0  0  0
    8.3747  -19.6803    0.0000 C   0  0  0  0  0  0  0  0  0  0  0  0
    8.3641  -18.1724    0.0000 C   0  0  0  0  0  0  0  0  0  0  0  0
    7.0626  -17.4342    0.0000 C   0  0  0  0  0  0  0  0  0  0  0  0
    9.6927  -24.9236    0.0000 Cl  0  0  0  0  0  0  0  0  0  0  0  0
    9.6774  -20.4235    0.0000 Cl  0  0  0  0  0  0  0  0  0  0  0  0
 16 19  1  0  0  0  0
  4  5  1  0  0  0  0
 17 20  1  0  0  0  0
  5 10  1  0  0  0  0
 20 21  1  0  0  0  0
  2  3  1  0  0  0  0
 21 22  1  0  0  0  0
 10 11  2  0  0  0  0
 21 23  2  0  0  0  0
  5  6  2  0  0  0  0
 19 24  1  0  0  0  0
 11 12  1  0  0  0  0
  8 25  1  0  0  0  0
  6  1  1  0  0  0  0
 22 26  1  0  0  0  0
 12 13  1  0  0  0  0
 24 27  2  0  0  0  0
  1  2  2  0  0  0  0
 27 28  1  0  0  0  0
 12 14  2  0  0  0  0
 28 29  2  0  0  0  0
  1  7  1  0  0  0  0
 29 30  1  0  0  0  0
 15 13  1  0  0  0  0
 30 31  2  0  0  0  0
 31 24  1  0  0  0  0
  3  4  2  0  0  0  0
 26 32  2  0  0  0  0
 15 16  1  0  0  0  0
 32 33  1  0  0  0  0
  2  8  1  0  0  0  0
 33 34  2  0  0  0  0
 15 17  1  1  0  0  0
 34 35  1  0  0  0  0
 35 36  2  0  0  0  0
 36 26  1  0  0  0  0
 16 18  2  0  0  0  0
 29 37  1  0  0  0  0
  7  9  1  0  0  0  0
 34 38  1  0  0  0  0
M  END
> <Value>
3.392330563311757

> <Relation>
=

> <SourceURI>
mol:CHEMBL490452

$$$$

Generated by Molecular Materials Informatics

 38 40  0  0  0  0  0  0  0  0999 V2000
   -8.5151  -27.1645    0.0000 C   0  0  0  0  0  0  0  0  0  0  0  0
   -8.5171  -28.6689    0.0000 C   0  0  0  0  0  0  0  0  0  0  0  0
   -7.2175  -29.4194    0.0000 C   0  0  0  0  0  0  0  0  0  0  0  0
   -5.9149  -28.6680    0.0000 C   0  0  0  0  0  0  0  0  0  0  0  0
   -5.9200  -27.1580    0.0000 C   0  0  0  0  0  0  0  0  0  0  0  0
   -7.2208  -26.4140    0.0000 C   0  0  0  0  0  0  0  0  0  0  0  0
   -9.8259  -26.4149    0.0000 O   0  0  0  0  0  0  0  0  0  0  0  0
   -9.8233  -29.4178    0.0000 O   0  0  0  0  0  0  0  0  0  0  0  0
  -11.1179  -27.1650    0.0000 C   0  0  0  0  0  0  0  0  0  0  0  0
   -4.6238  -26.4030    0.0000 C   0  0  0  0  0  0  0  0  0  0  0  0
   -3.3220  -27.1481    0.0000 C   0  0  0  0  0  0  0  0  0  0  0  0
   -2.0258  -26.3932    0.0000 C   0  0  0  0  0  0  0  0  0  0  0  0
   -0.7240  -27.1383    0.0000 N   0  0  0  0  0  0  0  0  0  0  0  0
   -2.0315  -24.8932    0.0000 O   0  0  0  0  0  0  0  0  0  0  0  0
    0.5722  -26.3834    0.0000 C   0  0  0  0  0  0  0  0  0  0  0  0
    1.8742  -27.1285    0.0000 C   0  0  0  0  0  0  0  0  0  0  0  0
    0.5666  -24.8834    0.0000 C   0  0  0  0  0  0  0  0  0  0  0  0
    1.8798  -28.6285    0.0000 O   0  0  0  0  0  0  0  0  0  0  0  0
    3.1704  -26.3736    0.0000 N   0  0  0  0  0  0  0  0  0  0  0  0
    1.8627  -24.1285    0.0000 C   0  0  0  0  0  0  0  0  0  0  0  0
    1.8571  -22.6285    0.0000 C   0  0  0  0  0  0  0  0  0  0  0  0
    3.1533  -21.8736    0.0000 N   0  0  0  0  0  0  0  0  0  0  0  0
    0.5553  -21.8834    0.0000 O   0  0  0  0  0  0  0  0  0  0  0  0
    4.4722  -27.1187    0.0000 C   0  0  0  0  0  0  0  0  0  0  0  0
  -11.1157  -28.6667    0.0000 C   0  0  0  0  0  0  0  0  0  0  0  0
    4.4553  -22.6187    0.0000 C   0  0  0  0  0  0  0  0  0  0  0  0
    4.4686  -28.6152    0.0000 C   0  0  0  0  0  0  0  0  0  0  0  0
    5.7688  -29.3601    0.0000 C   0  0  0  0  0  0  0  0  0  0  0  0
    7.0668  -28.6052    0.0000 C   0  0  0  0  0  0  0  0  0  0  0  0
    7.0564  -27.0974    0.0000 C   0  0  0  0  0  0  0  0  0  0  0  0
    5.7549  -26.3592    0.0000 C   0  0  0  0  0  0  0  0  0  0  0  0
    4.4533  -24.1152    0.0000 C   0  0  0  0  0  0  0  0  0  0  0  0
    5.7537  -24.8601    0.0000 C   0  0  0  0  0  0  0  0  0  0  0  0
    7.0517  -24.1052    0.0000 C   0  0  0  0  0  0  0  0  0  0  0  0
    7.0411  -22.5974    0.0000 C   0  0  0  0  0  0  0  0  0  0  0  0
    5.7399  -21.8592    0.0000 C   0  0  0  0  0  0  0  0  0  0  0  0
    5.7264  -20.3594    0.0000 F   0  0  0  0  0  0  0  0  0  0  0  0
    3.1698  -29.3658    0.0000 F   0  0  0  0  0  0  0  0  0  0  0  0
 16 19  1  0  0  0  0
  4  5  1  0  0  0  0
 17 20  1  0  0  0  0
  5 10  1  0  0  0  0
 20 21  1  0  0  0  0
  2  3  1  0  0  0  0
 21 22  1  0  0  0  0
 10 11  2  0  0  0  0
 21 23  2  0  0  0  0
  5  6  2  0  0  0  0
 19 24  1  0  0  0  0
 11 12  1  0  0  0  0
  8 25  1  0  0  0  0
  6  1  1  0  0  0  0
 22 26  1  0  0  0  0
 12 13  1  0  0  0  0
 24 27  2  0  0  0  0
  1  2  2  0  0  0  0
 27 28  1  0  0  0  0
 12 14  2  0  0  0  0
 28 29  2  0  0  0  0
  1  7  1  0  0  0  0
 29 30  1  0  0  0  0
 15 13  1  0  0  0  0
 30 31  2  0  0  0  0
 31 24  1  0  0  0  0
  3  4  2  0  0  0  0
 26 32  2  0  0  0  0
 15 16  1  0  0  0  0
 32 33  1  0  0  0  0
  2  8  1  0  0  0  0
 33 34  2  0  0  0  0
 15 17  1  1  0  0  0
 34 35  1  0  0  0  0
 35 36  2  0  0  0  0
 36 26  1  0  0  0  0
 16 18  2  0  0  0  0
 36 37  1  0  0  0  0
  7  9  1  0  0  0  0
 27 38  1  0  0  0  0
M  END
> <Value>
3.392330563311757

> <Relation>
=

> <SourceURI>
mol:CHEMBL490647

$$$$

Generated by Molecular Materials Informatics

 38 40  0  0  0  0  0  0  0  0999 V2000
    6.2621  -22.4853    0.0000 C   0  0  0  0  0  0  0  0  0  0  0  0
    6.2599  -23.9896    0.0000 C   0  0  0  0  0  0  0  0  0  0  0  0
    7.5595  -24.7404    0.0000 C   0  0  0  0  0  0  0  0  0  0  0  0
    8.8623  -23.9887    0.0000 C   0  0  0  0  0  0  0  0  0  0  0  0
    8.8570  -22.4787    0.0000 C   0  0  0  0  0  0  0  0  0  0  0  0
    7.5563  -21.7347    0.0000 C   0  0  0  0  0  0  0  0  0  0  0  0
    4.9628  -21.7356    0.0000 O   0  0  0  0  0  0  0  0  0  0  0  0
    4.9603  -24.7385    0.0000 O   0  0  0  0  0  0  0  0  0  0  0  0
    3.6639  -22.4860    0.0000 C   0  0  0  0  0  0  0  0  0  0  0  0
   10.1532  -21.7238    0.0000 C   0  0  0  0  0  0  0  0  0  0  0  0
   11.4550  -22.4689    0.0000 C   0  0  0  0  0  0  0  0  0  0  0  0
   12.7512  -21.7140    0.0000 C   0  0  0  0  0  0  0  0  0  0  0  0
   14.0532  -22.4591    0.0000 N   0  0  0  0  0  0  0  0  0  0  0  0
   12.7456  -20.2140    0.0000 O   0  0  0  0  0  0  0  0  0  0  0  0
   15.3494  -21.7042    0.0000 C   0  0  0  0  0  0  0  0  0  0  0  0
   16.6512  -22.4493    0.0000 C   0  0  0  0  0  0  0  0  0  0  0  0
   15.3438  -20.2042    0.0000 C   0  0  0  0  0  0  0  0  0  0  0  0
   16.6569  -23.9493    0.0000 O   0  0  0  0  0  0  0  0  0  0  0  0
   17.9474  -21.6943    0.0000 N   0  0  0  0  0  0  0  0  0  0  0  0
   16.6400  -19.4492    0.0000 C   0  0  0  0  0  0  0  0  0  0  0  0
   16.6343  -17.9492    0.0000 C   0  0  0  0  0  0  0  0  0  0  0  0
   17.9305  -17.1945    0.0000 N   0  0  0  0  0  0  0  0  0  0  0  0
   15.3323  -17.2041    0.0000 O   0  0  0  0  0  0  0  0  0  0  0  0
   19.2492  -22.4394    0.0000 C   0  0  0  0  0  0  0  0  0  0  0  0
    3.6619  -23.9876    0.0000 C   0  0  0  0  0  0  0  0  0  0  0  0
   19.2323  -17.9396    0.0000 C   0  0  0  0  0  0  0  0  0  0  0  0
   19.2456  -23.9360    0.0000 C   0  0  0  0  0  0  0  0  0  0  0  0
   20.5460  -24.6811    0.0000 C   0  0  0  0  0  0  0  0  0  0  0  0
   21.8440  -23.9260    0.0000 C   0  0  0  0  0  0  0  0  0  0  0  0
   21.8334  -22.4183    0.0000 C   0  0  0  0  0  0  0  0  0  0  0  0
   20.5320  -21.6802    0.0000 C   0  0  0  0  0  0  0  0  0  0  0  0
   19.2305  -19.4360    0.0000 C   0  0  0  0  0  0  0  0  0  0  0  0
   20.5307  -20.1811    0.0000 C   0  0  0  0  0  0  0  0  0  0  0  0
   21.8287  -19.4260    0.0000 C   0  0  0  0  0  0  0  0  0  0  0  0
   21.8183  -17.9183    0.0000 C   0  0  0  0  0  0  0  0  0  0  0  0
   20.5169  -17.1801    0.0000 C   0  0  0  0  0  0  0  0  0  0  0  0
   23.1467  -24.6695    0.0000 Br  0  0  0  0  0  0  0  0  0  0  0  0
   23.1316  -20.1694    0.0000 Br  0  0  0  0  0  0  0  0  0  0  0  0
 16 19  1  0  0  0  0
  4  5  1  0  0  0  0
 17 20  1  0  0  0  0
  5 10  1  0  0  0  0
 20 21  1  0  0  0  0
  2  3  1  0  0  0  0
 21 22  1  0  0  0  0
 10 11  2  0  0  0  0
 21 23  2  0  0  0  0
  5  6  2  0  0  0  0
 19 24  1  0  0  0  0
 11 12  1  0  0  0  0
  8 25  1  0  0  0  0
  6  1  1  0  0  0  0
 22 26  1  0  0  0  0
 12 13  1  0  0  0  0
 24 27  2  0  0  0  0
  1  2  2  0  0  0  0
 27 28  1  0  0  0  0
 12 14  2  0  0  0  0
 28 29  2  0  0  0  0
  1  7  1  0  0  0  0
 29 30  1  0  0  0  0
 15 13  1  0  0  0  0
 30 31  2  0  0  0  0
 31 24  1  0  0  0  0
  3  4  2  0  0  0  0
 26 32  2  0  0  0  0
 15 16  1  0  0  0  0
 32 33  1  0  0  0  0
  2  8  1  0  0  0  0
 33 34  2  0  0  0  0
 15 17  1  1  0  0  0
 34 35  1  0  0  0  0
 35 36  2  0  0  0  0
 36 26  1  0  0  0  0
 16 18  2  0  0  0  0
 29 37  1  0  0  0  0
  7  9  1  0  0  0  0
 34 38  1  0  0  0  0
M  END
> <Value>
3.2383728154384173

> <Relation>
=

> <SourceURI>
mol:CHEMBL490453

$$$$

Generated by Molecular Materials Informatics

 24 25  0  0  0  0  0  0  0  0999 V2000
   -6.4028  -15.2604    0.0000 C   0  0  0  0  0  0  0  0  0  0  0  0
   -6.4050  -16.7648    0.0000 C   0  0  0  0  0  0  0  0  0  0  0  0
   -5.1054  -17.5155    0.0000 C   0  0  0  0  0  0  0  0  0  0  0  0
   -3.8027  -16.7638    0.0000 C   0  0  0  0  0  0  0  0  0  0  0  0
   -3.8079  -15.2538    0.0000 C   0  0  0  0  0  0  0  0  0  0  0  0
   -5.1087  -14.5100    0.0000 C   0  0  0  0  0  0  0  0  0  0  0  0
   -7.7021  -14.5108    0.0000 F   0  0  0  0  0  0  0  0  0  0  0  0
   -2.5025  -17.5118    0.0000 C   0  0  0  0  0  0  0  0  0  0  0  0
   -1.2047  -16.7598    0.0000 N   0  0  0  0  0  0  0  0  0  0  0  0
    0.0955  -17.5078    0.0000 C   0  0  0  0  0  0  0  0  0  0  0  0
    1.3933  -16.7557    0.0000 C   0  0  0  0  0  0  0  0  0  0  0  0
    0.0979  -19.0078    0.0000 O   0  0  0  0  0  0  0  0  0  0  0  0
    2.6937  -17.5037    0.0000 C   0  0  0  0  0  0  0  0  0  0  0  0
    2.6961  -19.0037    0.0000 O   0  0  0  0  0  0  0  0  0  0  0  0
    3.9915  -16.7517    0.0000 N   0  0  0  0  0  0  0  0  0  0  0  0
    1.3912  -15.2557    0.0000 C   0  0  0  0  0  0  0  0  0  0  0  0
    0.0908  -14.5078    0.0000 C   0  0  0  0  0  0  0  0  0  0  0  0
    0.0923  -13.0106    0.0000 C   0  0  0  0  0  0  0  0  0  0  0  0
   -1.2063  -12.2628    0.0000 C   0  0  0  0  0  0  0  0  0  0  0  0
   -2.5061  -13.0149    0.0000 C   0  0  0  0  0  0  0  0  0  0  0  0
   -2.4988  -14.5228    0.0000 C   0  0  0  0  0  0  0  0  0  0  0  0
   -1.1992  -15.2637    0.0000 C   0  0  0  0  0  0  0  0  0  0  0  0
    5.2917  -17.4997    0.0000 O   0  0  0  0  0  0  0  0  0  0  0  0
    2.6830  -15.9953    0.0000 C   0  0  0  0  0  0  0  0  0  0  0  0
 10 12  2  0  0  0  0
  6  1  1  0  0  0  0
 11 13  1  0  0  0  0
  1  2  2  0  0  0  0
 13 14  2  0  0  0  0
  1  7  1  0  0  0  0
 13 15  1  0  0  0  0
  3  4  2  0  0  0  0
 11 16  1  0  0  0  0
  4  8  1  0  0  0  0
 16 17  1  0  0  0  0
 17 18  2  0  0  0  0
  8  9  1  0  0  0  0
 18 19  1  0  0  0  0
  4  5  1  0  0  0  0
 19 20  2  0  0  0  0
  9 10  1  0  0  0  0
 20 21  1  0  0  0  0
  2  3  1  0  0  0  0
 21 22  2  0  0  0  0
 22 17  1  0  0  0  0
 10 11  1  0  0  0  0
 15 23  1  0  0  0  0
  5  6  2  0  0  0  0
 11 24  1  0  0  0  0
M  END
> <Value>
5.0

> <Relation>
<

> <SourceURI>
mol:CHEMBL572368

$$$$

Generated by Molecular Materials Informatics

 22 23  0  0  0  0  0  0  0  0999 V2000
   28.5405  -13.5313    0.0000 C   0  0  0  0  0  0  0  0  0  0  0  0
   29.8396  -12.7814    0.0000 C   0  0  0  0  0  0  0  0  0  0  0  0
   31.1387  -13.5313    0.0000 C   0  0  0  0  0  0  0  0  0  0  0  0
   32.4378  -12.7814    0.0000 N   0  0  0  0  0  0  0  0  0  0  0  0
   31.1387  -15.0314    0.0000 O   0  0  0  0  0  0  0  0  0  0  0  0
   33.7369  -13.5313    0.0000 O   0  0  0  0  0  0  0  0  0  0  0  0
   29.8396  -11.2813    0.0000 C   0  0  0  0  0  0  0  0  0  0  0  0
   31.1387  -10.5312    0.0000 C   0  0  0  0  0  0  0  0  0  0  0  0
   32.4370  -11.2862    0.0000 C   0  0  0  0  0  0  0  0  0  0  0  0
   33.7354  -10.5375    0.0000 C   0  0  0  0  0  0  0  0  0  0  0  0
   33.7362   -9.0357    0.0000 C   0  0  0  0  0  0  0  0  0  0  0  0
   32.4279   -8.2860    0.0000 C   0  0  0  0  0  0  0  0  0  0  0  0
   31.1350   -9.0390    0.0000 C   0  0  0  0  0  0  0  0  0  0  0  0
   27.2412  -12.7814    0.0000 N   0  0  0  0  0  0  0  0  0  0  0  0
   28.5405  -15.0314    0.0000 O   0  0  0  0  0  0  0  0  0  0  0  0
   25.9421  -13.5313    0.0000 C   0  0  0  0  0  0  0  0  0  0  0  0
   24.6429  -12.7814    0.0000 C   0  0  0  0  0  0  0  0  0  0  0  0
   24.6525  -11.2793    0.0000 C   0  0  0  0  0  0  0  0  0  0  0  0
   23.3548  -10.5294    0.0000 C   0  0  0  0  0  0  0  0  0  0  0  0
   22.0539  -11.2794    0.0000 N   0  0  0  0  0  0  0  0  0  0  0  0
   22.0587  -12.7873    0.0000 C   0  0  0  0  0  0  0  0  0  0  0  0
   23.3574  -13.5305    0.0000 C   0  0  0  0  0  0  0  0  0  0  0  0
  1  2  1  0  0  0  0
  2  3  1  0  0  0  0
  3  4  1  0  0  0  0
  3  5  2  0  0  0  0
  4  6  1  0  0  0  0
  2  7  1  0  0  0  0
  7  8  1  0  0  0  0
  8  9  2  0  0  0  0
  9 10  1  0  0  0  0
 10 11  2  0  0  0  0
 11 12  1  0  0  0  0
 12 13  2  0  0  0  0
 13  8  1  0  0  0  0
  1 14  1  0  0  0  0
  1 15  2  0  0  0  0
 14 16  1  0  0  0  0
 16 17  1  0  0  0  0
 17 18  2  0  0  0  0
 18 19  1  0  0  0  0
 19 20  2  0  0  0  0
 20 21  1  0  0  0  0
 21 22  2  0  0  0  0
 22 17  1  0  0  0  0
M  END
> <Value>
5.341988603342887

> <Relation>
=

> <SourceURI>
mol:CHEMBL2180997

$$$$

Generated by Molecular Materials Informatics

 24 25  0  0  0  0  0  0  0  0999 V2000
   11.9908  -13.6803    0.0000 C   0  0  0  0  0  0  0  0  0  0  0  0
   13.2898  -12.9303    0.0000 C   0  0  0  0  0  0  0  0  0  0  0  0
   14.5889  -13.6803    0.0000 C   0  0  0  0  0  0  0  0  0  0  0  0
   15.8879  -12.9303    0.0000 N   0  0  0  0  0  0  0  0  0  0  0  0
   14.5889  -15.1803    0.0000 O   0  0  0  0  0  0  0  0  0  0  0  0
   17.1869  -13.6803    0.0000 O   0  0  0  0  0  0  0  0  0  0  0  0
   13.2898  -11.4302    0.0000 C   0  0  0  0  0  0  0  0  0  0  0  0
   14.5889  -10.6802    0.0000 C   0  0  0  0  0  0  0  0  0  0  0  0
   15.8872  -11.4354    0.0000 C   0  0  0  0  0  0  0  0  0  0  0  0
   17.1855  -10.6866    0.0000 C   0  0  0  0  0  0  0  0  0  0  0  0
   17.1862   -9.1850    0.0000 C   0  0  0  0  0  0  0  0  0  0  0  0
   15.8780   -8.4353    0.0000 C   0  0  0  0  0  0  0  0  0  0  0  0
   14.5852   -9.1883    0.0000 C   0  0  0  0  0  0  0  0  0  0  0  0
   10.6918  -12.9303    0.0000 N   0  0  0  0  0  0  0  0  0  0  0  0
   11.9908  -15.1803    0.0000 O   0  0  0  0  0  0  0  0  0  0  0  0
    9.3926  -13.6803    0.0000 C   0  0  0  0  0  0  0  0  0  0  0  0
    8.0935  -12.9303    0.0000 C   0  0  0  0  0  0  0  0  0  0  0  0
    8.1031  -11.4284    0.0000 C   0  0  0  0  0  0  0  0  0  0  0  0
    6.8055  -10.6786    0.0000 C   0  0  0  0  0  0  0  0  0  0  0  0
    5.5046  -11.4286    0.0000 C   0  0  0  0  0  0  0  0  0  0  0  0
    5.5096  -12.9363    0.0000 C   0  0  0  0  0  0  0  0  0  0  0  0
    6.8081  -13.6793    0.0000 C   0  0  0  0  0  0  0  0  0  0  0  0
   18.4843   -8.4331    0.0000 F   0  0  0  0  0  0  0  0  0  0  0  0
    4.2047  -10.6804    0.0000 F   0  0  0  0  0  0  0  0  0  0  0  0
  1  2  1  0  0  0  0
  2  3  1  0  0  0  0
  3  4  1  0  0  0  0
  3  5  2  0  0  0  0
  4  6  1  0  0  0  0
  2  7  2  0  0  0  0
  7  8  1  0  0  0  0
  8  9  2  0  0  0  0
  9 10  1  0  0  0  0
 10 11  2  0  0  0  0
 11 12  1  0  0  0  0
 12 13  2  0  0  0  0
 13  8  1  0  0  0  0
  1 14  1  0  0  0  0
  1 15  2  0  0  0  0
 14 16  1  0  0  0  0
 16 17  1  0  0  0  0
 17 18  2  0  0  0  0
 18 19  1  0  0  0  0
 19 20  2  0  0  0  0
 20 21  1  0  0  0  0
 21 22  2  0  0  0  0
 22 17  1  0  0  0  0
 11 23  1  0  0  0  0
 20 24  1  0  0  0  0
M  END
> <Value>
5.376750709602099

> <Relation>
=

> <SourceURI>
mol:CHEMBL2180996

$$$$

Generated by Molecular Materials Informatics

 24 25  0  0  0  0  0  0  0  0999 V2000
   29.3458   -9.1734    0.0000 C   0  0  0  0  0  0  0  0  0  0  0  0
   30.6448   -8.4233    0.0000 C   0  0  0  0  0  0  0  0  0  0  0  0
   31.9439   -9.1734    0.0000 C   0  0  0  0  0  0  0  0  0  0  0  0
   33.2429   -8.4233    0.0000 N   0  0  0  0  0  0  0  0  0  0  0  0
   31.9439  -10.6734    0.0000 O   0  0  0  0  0  0  0  0  0  0  0  0
   34.5419   -9.1734    0.0000 O   0  0  0  0  0  0  0  0  0  0  0  0
   30.6448   -6.9233    0.0000 C   0  0  0  0  0  0  0  0  0  0  0  0
   31.9439   -6.1733    0.0000 C   0  0  0  0  0  0  0  0  0  0  0  0
   33.2422   -6.9283    0.0000 C   0  0  0  0  0  0  0  0  0  0  0  0
   34.5405   -6.1796    0.0000 C   0  0  0  0  0  0  0  0  0  0  0  0
   34.5412   -4.6781    0.0000 C   0  0  0  0  0  0  0  0  0  0  0  0
   33.2330   -3.9282    0.0000 C   0  0  0  0  0  0  0  0  0  0  0  0
   31.9402   -4.6814    0.0000 C   0  0  0  0  0  0  0  0  0  0  0  0
   28.0468   -8.4233    0.0000 N   0  0  0  0  0  0  0  0  0  0  0  0
   29.3458  -10.6734    0.0000 O   0  0  0  0  0  0  0  0  0  0  0  0
   26.7476   -9.1734    0.0000 C   0  0  0  0  0  0  0  0  0  0  0  0
   25.4485   -8.4233    0.0000 C   0  0  0  0  0  0  0  0  0  0  0  0
   25.4581   -6.9213    0.0000 C   0  0  0  0  0  0  0  0  0  0  0  0
   24.1605   -6.1715    0.0000 C   0  0  0  0  0  0  0  0  0  0  0  0
   22.8596   -6.9217    0.0000 C   0  0  0  0  0  0  0  0  0  0  0  0
   22.8646   -8.4294    0.0000 C   0  0  0  0  0  0  0  0  0  0  0  0
   24.1631   -9.1724    0.0000 C   0  0  0  0  0  0  0  0  0  0  0  0
   35.8393   -3.9262    0.0000 F   0  0  0  0  0  0  0  0  0  0  0  0
   21.5597   -6.1733    0.0000 F   0  0  0  0  0  0  0  0  0  0  0  0
  1  2  1  0  0  0  0
  2  3  1  0  0  0  0
  3  4  1  0  0  0  0
  3  5  2  0  0  0  0
  4  6  1  0  0  0  0
  2  7  1  0  0  0  0
  7  8  1  0  0  0  0
  8  9  2  0  0  0  0
  9 10  1  0  0  0  0
 10 11  2  0  0  0  0
 11 12  1  0  0  0  0
 12 13  2  0  0  0  0
 13  8  1  0  0  0  0
  1 14  1  0  0  0  0
  1 15  2  0  0  0  0
 14 16  1  0  0  0  0
 16 17  1  0  0  0  0
 17 18  2  0  0  0  0
 18 19  1  0  0  0  0
 19 20  2  0  0  0  0
 20 21  1  0  0  0  0
 21 22  2  0  0  0  0
 22 17  1  0  0  0  0
 11 23  1  0  0  0  0
 20 24  1  0  0  0  0
M  END
> <Value>
5.402743717074858

> <Relation>
=

> <SourceURI>
mol:CHEMBL2180994

$$$$

Generated by Molecular Materials Informatics

 23 24  0  0  0  0  0  0  0  0999 V2000
    3.1750  -14.0352    0.0000 C   0  0  0  0  0  0  0  0  0  0  0  0
    4.4740  -13.2852    0.0000 C   0  0  0  0  0  0  0  0  0  0  0  0
    5.7732  -14.0352    0.0000 C   0  0  0  0  0  0  0  0  0  0  0  0
    7.0722  -13.2852    0.0000 N   0  0  0  0  0  0  0  0  0  0  0  0
    5.7732  -15.5352    0.0000 O   0  0  0  0  0  0  0  0  0  0  0  0
    8.3712  -14.0352    0.0000 O   0  0  0  0  0  0  0  0  0  0  0  0
    4.4740  -11.7852    0.0000 C   0  0  0  0  0  0  0  0  0  0  0  0
    5.7732  -11.0352    0.0000 C   0  0  0  0  0  0  0  0  0  0  0  0
    7.0714  -11.7902    0.0000 C   0  0  0  0  0  0  0  0  0  0  0  0
    8.3695  -11.0415    0.0000 C   0  0  0  0  0  0  0  0  0  0  0  0
    8.3705   -9.5398    0.0000 C   0  0  0  0  0  0  0  0  0  0  0  0
    7.0623   -8.7902    0.0000 C   0  0  0  0  0  0  0  0  0  0  0  0
    5.7695   -9.5433    0.0000 C   0  0  0  0  0  0  0  0  0  0  0  0
    1.8760  -13.2852    0.0000 N   0  0  0  0  0  0  0  0  0  0  0  0
    3.1750  -15.5352    0.0000 O   0  0  0  0  0  0  0  0  0  0  0  0
    0.5770  -14.0352    0.0000 C   0  0  0  0  0  0  0  0  0  0  0  0
   -0.7221  -13.2852    0.0000 C   0  0  0  0  0  0  0  0  0  0  0  0
   -0.7125  -11.7832    0.0000 C   0  0  0  0  0  0  0  0  0  0  0  0
   -2.0101  -11.0334    0.0000 C   0  0  0  0  0  0  0  0  0  0  0  0
   -3.3237  -11.7834    0.0000 C   0  0  0  0  0  0  0  0  0  0  0  0
   -3.3135  -13.2913    0.0000 C   0  0  0  0  0  0  0  0  0  0  0  0
   -2.0075  -14.0343    0.0000 C   0  0  0  0  0  0  0  0  0  0  0  0
    9.6685   -8.7882    0.0000 F   0  0  0  0  0  0  0  0  0  0  0  0
  1  2  1  0  0  0  0
  2  3  1  0  0  0  0
  3  4  1  0  0  0  0
  3  5  2  0  0  0  0
  4  6  1  0  0  0  0
  2  7  2  0  0  0  0
  7  8  1  0  0  0  0
  8  9  2  0  0  0  0
  9 10  1  0  0  0  0
 10 11  2  0  0  0  0
 11 12  1  0  0  0  0
 12 13  2  0  0  0  0
 13  8  1  0  0  0  0
  1 14  1  0  0  0  0
  1 15  2  0  0  0  0
 14 16  1  0  0  0  0
 16 17  1  0  0  0  0
 17 18  2  0  0  0  0
 18 19  1  0  0  0  0
 19 20  2  0  0  0  0
 20 21  1  0  0  0  0
 21 22  2  0  0  0  0
 22 17  1  0  0  0  0
 11 23  1  0  0  0  0
M  END
> <Value>
5.619788758288394

> <Relation>
=

> <SourceURI>
mol:CHEMBL2180995

$$$$

Generated by Molecular Materials Informatics

 23 24  0  0  0  0  0  0  0  0999 V2000
    3.8429   -9.0986    0.0000 C   0  0  0  0  0  0  0  0  0  0  0  0
    5.1420   -8.3486    0.0000 C   0  0  0  0  0  0  0  0  0  0  0  0
    6.4410   -9.0986    0.0000 C   0  0  0  0  0  0  0  0  0  0  0  0
    7.7400   -8.3486    0.0000 N   0  0  0  0  0  0  0  0  0  0  0  0
    6.4410  -10.5986    0.0000 O   0  0  0  0  0  0  0  0  0  0  0  0
    9.0392   -9.0986    0.0000 O   0  0  0  0  0  0  0  0  0  0  0  0
    5.1420   -6.8486    0.0000 C   0  0  0  0  0  0  0  0  0  0  0  0
    6.4410   -6.0986    0.0000 C   0  0  0  0  0  0  0  0  0  0  0  0
    7.7395   -6.8535    0.0000 C   0  0  0  0  0  0  0  0  0  0  0  0
    9.0376   -6.1048    0.0000 C   0  0  0  0  0  0  0  0  0  0  0  0
    9.0385   -4.6033    0.0000 C   0  0  0  0  0  0  0  0  0  0  0  0
    7.7303   -3.8535    0.0000 C   0  0  0  0  0  0  0  0  0  0  0  0
    6.4375   -4.6066    0.0000 C   0  0  0  0  0  0  0  0  0  0  0  0
    2.5439   -8.3486    0.0000 N   0  0  0  0  0  0  0  0  0  0  0  0
    3.8429  -10.5986    0.0000 O   0  0  0  0  0  0  0  0  0  0  0  0
    1.2449   -9.0986    0.0000 C   0  0  0  0  0  0  0  0  0  0  0  0
   -0.0542   -8.3486    0.0000 C   0  0  0  0  0  0  0  0  0  0  0  0
   -0.0448   -6.8465    0.0000 C   0  0  0  0  0  0  0  0  0  0  0  0
   -1.3422   -6.0967    0.0000 C   0  0  0  0  0  0  0  0  0  0  0  0
   -2.6430   -6.8469    0.0000 C   0  0  0  0  0  0  0  0  0  0  0  0
   -2.6383   -8.3546    0.0000 C   0  0  0  0  0  0  0  0  0  0  0  0
   -1.3396   -9.0977    0.0000 C   0  0  0  0  0  0  0  0  0  0  0  0
   -1.3414   -4.5967    0.0000 F   0  0  0  0  0  0  0  0  0  0  0  0
  1  2  1  0  0  0  0
  2  3  1  0  0  0  0
  3  4  1  0  0  0  0
  3  5  2  0  0  0  0
  4  6  1  0  0  0  0
  2  7  1  0  0  0  0
  7  8  1  0  0  0  0
  8  9  2  0  0  0  0
  9 10  1  0  0  0  0
 10 11  2  0  0  0  0
 11 12  1  0  0  0  0
 12 13  2  0  0  0  0
 13  8  1  0  0  0  0
  1 14  1  0  0  0  0
  1 15  2  0  0  0  0
 14 16  1  0  0  0  0
 16 17  1  0  0  0  0
 17 18  2  0  0  0  0
 18 19  1  0  0  0  0
 19 20  2  0  0  0  0
 20 21  1  0  0  0  0
 21 22  2  0  0  0  0
 22 17  1  0  0  0  0
 19 23  1  0  0  0  0
M  END
> <Value>
5.632085261206248

> <Relation>
=

> <SourceURI>
mol:CHEMBL2180991

$$$$

Generated by Molecular Materials Informatics

 23 24  0  0  0  0  0  0  0  0999 V2000
   12.4524   -8.7354    0.0000 C   0  0  0  0  0  0  0  0  0  0  0  0
   13.7514   -7.9854    0.0000 C   0  0  0  0  0  0  0  0  0  0  0  0
   15.0504   -8.7354    0.0000 C   0  0  0  0  0  0  0  0  0  0  0  0
   16.3495   -7.9854    0.0000 N   0  0  0  0  0  0  0  0  0  0  0  0
   15.0504  -10.2354    0.0000 O   0  0  0  0  0  0  0  0  0  0  0  0
   17.6485   -8.7354    0.0000 O   0  0  0  0  0  0  0  0  0  0  0  0
   13.7514   -6.4854    0.0000 C   0  0  0  0  0  0  0  0  0  0  0  0
   15.0504   -5.7354    0.0000 C   0  0  0  0  0  0  0  0  0  0  0  0
   16.3489   -6.4903    0.0000 C   0  0  0  0  0  0  0  0  0  0  0  0
   17.6470   -5.7416    0.0000 C   0  0  0  0  0  0  0  0  0  0  0  0
   17.6479   -4.2401    0.0000 C   0  0  0  0  0  0  0  0  0  0  0  0
   16.3397   -3.4903    0.0000 C   0  0  0  0  0  0  0  0  0  0  0  0
   15.0469   -4.2434    0.0000 C   0  0  0  0  0  0  0  0  0  0  0  0
   11.1533   -7.9854    0.0000 N   0  0  0  0  0  0  0  0  0  0  0  0
   12.4524  -10.2354    0.0000 O   0  0  0  0  0  0  0  0  0  0  0  0
    9.8543   -8.7354    0.0000 C   0  0  0  0  0  0  0  0  0  0  0  0
    8.5553   -7.9854    0.0000 C   0  0  0  0  0  0  0  0  0  0  0  0
    8.5646   -6.4835    0.0000 C   0  0  0  0  0  0  0  0  0  0  0  0
    7.2673   -5.7335    0.0000 C   0  0  0  0  0  0  0  0  0  0  0  0
    5.9664   -6.4837    0.0000 C   0  0  0  0  0  0  0  0  0  0  0  0
    5.9712   -7.9914    0.0000 C   0  0  0  0  0  0  0  0  0  0  0  0
    7.2698   -8.7345    0.0000 C   0  0  0  0  0  0  0  0  0  0  0  0
    9.8662   -5.7377    0.0000 F   0  0  0  0  0  0  0  0  0  0  0  0
  1  2  1  0  0  0  0
  2  3  1  0  0  0  0
  3  4  1  0  0  0  0
  3  5  2  0  0  0  0
  4  6  1  0  0  0  0
  2  7  1  0  0  0  0
  7  8  1  0  0  0  0
  8  9  2  0  0  0  0
  9 10  1  0  0  0  0
 10 11  2  0  0  0  0
 11 12  1  0  0  0  0
 12 13  2  0  0  0  0
 13  8  1  0  0  0  0
  1 14  1  0  0  0  0
  1 15  2  0  0  0  0
 14 16  1  0  0  0  0
 16 17  1  0  0  0  0
 17 18  2  0  0  0  0
 18 19  1  0  0  0  0
 19 20  2  0  0  0  0
 20 21  1  0  0  0  0
 21 22  2  0  0  0  0
 22 17  1  0  0  0  0
 18 23  1  0  0  0  0
M  END
> <Value>
5.653060537301009

> <Relation>
=

> <SourceURI>
mol:CHEMBL2180992

$$$$

Generated by Molecular Materials Informatics

 22 23  0  0  0  0  0  0  0  0999 V2000
    4.2569  -18.9594    0.0000 C   0  0  0  0  0  0  0  0  0  0  0  0
    5.5558  -18.2094    0.0000 C   0  0  0  0  0  0  0  0  0  0  0  0
    6.8548  -18.9594    0.0000 C   0  0  0  0  0  0  0  0  0  0  0  0
    8.1539  -18.2094    0.0000 N   0  0  0  0  0  0  0  0  0  0  0  0
    6.8548  -20.4593    0.0000 O   0  0  0  0  0  0  0  0  0  0  0  0
    9.4529  -18.9594    0.0000 O   0  0  0  0  0  0  0  0  0  0  0  0
    5.5558  -16.7095    0.0000 C   0  0  0  0  0  0  0  0  0  0  0  0
    6.8548  -15.9595    0.0000 C   0  0  0  0  0  0  0  0  0  0  0  0
    8.1533  -16.7144    0.0000 C   0  0  0  0  0  0  0  0  0  0  0  0
    9.4513  -15.9657    0.0000 C   0  0  0  0  0  0  0  0  0  0  0  0
    9.4522  -14.4641    0.0000 C   0  0  0  0  0  0  0  0  0  0  0  0
    8.1440  -13.7145    0.0000 C   0  0  0  0  0  0  0  0  0  0  0  0
    6.8514  -14.4675    0.0000 C   0  0  0  0  0  0  0  0  0  0  0  0
    2.9578  -18.2094    0.0000 N   0  0  0  0  0  0  0  0  0  0  0  0
    4.2569  -20.4593    0.0000 O   0  0  0  0  0  0  0  0  0  0  0  0
    1.6588  -18.9594    0.0000 C   0  0  0  0  0  0  0  0  0  0  0  0
    0.3599  -18.2094    0.0000 C   0  0  0  0  0  0  0  0  0  0  0  0
    0.3692  -16.7075    0.0000 C   0  0  0  0  0  0  0  0  0  0  0  0
   -0.9280  -15.9577    0.0000 C   0  0  0  0  0  0  0  0  0  0  0  0
   -2.2289  -16.7078    0.0000 N   0  0  0  0  0  0  0  0  0  0  0  0
   -2.2242  -18.2154    0.0000 C   0  0  0  0  0  0  0  0  0  0  0  0
   -0.9255  -18.9585    0.0000 C   0  0  0  0  0  0  0  0  0  0  0  0
  1  2  1  0  0  0  0
  2  3  1  0  0  0  0
  3  4  1  0  0  0  0
  3  5  2  0  0  0  0
  4  6  1  0  0  0  0
  2  7  2  0  0  0  0
  7  8  1  0  0  0  0
  8  9  2  0  0  0  0
  9 10  1  0  0  0  0
 10 11  2  0  0  0  0
 11 12  1  0  0  0  0
 12 13  2  0  0  0  0
 13  8  1  0  0  0  0
  1 14  1  0  0  0  0
  1 15  2  0  0  0  0
 14 16  1  0  0  0  0
 16 17  1  0  0  0  0
 17 18  2  0  0  0  0
 18 19  1  0  0  0  0
 19 20  2  0  0  0  0
 20 21  1  0  0  0  0
 21 22  2  0  0  0  0
 22 17  1  0  0  0  0
M  END
> <Value>
5.698970004336019

> <Relation>
=

> <SourceURI>
mol:CHEMBL2180998

$$$$

Generated by Molecular Materials Informatics

 23 24  0  0  0  0  0  0  0  0999 V2000
   20.3249   -8.9794    0.0000 C   0  0  0  0  0  0  0  0  0  0  0  0
   21.6239   -8.2293    0.0000 C   0  0  0  0  0  0  0  0  0  0  0  0
   22.9229   -8.9794    0.0000 C   0  0  0  0  0  0  0  0  0  0  0  0
   24.2220   -8.2293    0.0000 N   0  0  0  0  0  0  0  0  0  0  0  0
   22.9229  -10.4794    0.0000 O   0  0  0  0  0  0  0  0  0  0  0  0
   25.5210   -8.9794    0.0000 O   0  0  0  0  0  0  0  0  0  0  0  0
   21.6239   -6.7293    0.0000 C   0  0  0  0  0  0  0  0  0  0  0  0
   22.9229   -5.9793    0.0000 C   0  0  0  0  0  0  0  0  0  0  0  0
   24.2214   -6.7345    0.0000 C   0  0  0  0  0  0  0  0  0  0  0  0
   25.5195   -5.9856    0.0000 C   0  0  0  0  0  0  0  0  0  0  0  0
   25.5203   -4.4841    0.0000 C   0  0  0  0  0  0  0  0  0  0  0  0
   24.2122   -3.7342    0.0000 C   0  0  0  0  0  0  0  0  0  0  0  0
   22.9195   -4.4874    0.0000 C   0  0  0  0  0  0  0  0  0  0  0  0
   19.0259   -8.2293    0.0000 N   0  0  0  0  0  0  0  0  0  0  0  0
   20.3249  -10.4794    0.0000 O   0  0  0  0  0  0  0  0  0  0  0  0
   17.7268   -8.9794    0.0000 C   0  0  0  0  0  0  0  0  0  0  0  0
   16.4278   -8.2293    0.0000 C   0  0  0  0  0  0  0  0  0  0  0  0
   16.4372   -6.7275    0.0000 C   0  0  0  0  0  0  0  0  0  0  0  0
   15.1396   -5.9775    0.0000 C   0  0  0  0  0  0  0  0  0  0  0  0
   13.8389   -6.7277    0.0000 C   0  0  0  0  0  0  0  0  0  0  0  0
   13.8437   -8.2354    0.0000 C   0  0  0  0  0  0  0  0  0  0  0  0
   15.1422   -8.9784    0.0000 C   0  0  0  0  0  0  0  0  0  0  0  0
   26.8184   -3.7322    0.0000 F   0  0  0  0  0  0  0  0  0  0  0  0
  1  2  1  0  0  0  0
  2  3  1  0  0  0  0
  3  4  1  0  0  0  0
  3  5  2  0  0  0  0
  4  6  1  0  0  0  0
  2  7  1  0  0  0  0
  7  8  1  0  0  0  0
  8  9  2  0  0  0  0
  9 10  1  0  0  0  0
 10 11  2  0  0  0  0
 11 12  1  0  0  0  0
 12 13  2  0  0  0  0
 13  8  1  0  0  0  0
  1 14  1  0  0  0  0
  1 15  2  0  0  0  0
 14 16  1  0  0  0  0
 16 17  1  0  0  0  0
 17 18  2  0  0  0  0
 18 19  1  0  0  0  0
 19 20  2  0  0  0  0
 20 21  1  0  0  0  0
 21 22  2  0  0  0  0
 22 17  1  0  0  0  0
 11 23  1  0  0  0  0
M  END
> <Value>
5.878112014896319

> <Relation>
=

> <SourceURI>
mol:CHEMBL2180993

$$$$

Generated by Molecular Materials Informatics

 35 34  0  0  0  0  0  0  0  0999 V2000
   -9.7546   -2.3795    0.0000 N   0  3  0  0  0  0  0  0  0  0  0  0
  -11.0718   -3.0958    0.0000 O   0  0  0  0  0  0  0  0  0  0  0  0
   -9.7206   -0.8798    0.0000 O   0  5  0  0  0  0  0  0  0  0  0  0
   -8.4718   -3.1549    0.0000 N   0  0  0  0  0  0  0  0  0  0  0  0
   -7.1549   -2.4387    0.0000 C   0  0  0  0  0  0  0  0  0  0  0  0
   -5.8721   -3.2141    0.0000 N   0  0  0  0  0  0  0  0  0  0  0  0
   -7.1205   -0.9389    0.0000 N   0  0  0  0  0  0  0  0  0  0  0  0
   -4.5549   -2.4980    0.0000 C   0  0  0  0  0  0  0  0  0  0  0  0
   -3.2803   -3.2732    0.0000 C   0  0  0  0  0  0  0  0  0  0  0  0
   -1.9634   -2.5571    0.0000 C   0  0  0  0  0  0  0  0  0  0  0  0
   -0.6806   -3.3408    0.0000 C   0  0  0  0  0  0  0  0  0  0  0  0
    0.6364   -2.6164    0.0000 N   0  0  0  0  0  0  0  0  0  0  0  0
    1.9192   -3.3999    0.0000 C   0  0  0  0  0  0  0  0  0  0  0  0
    1.8852   -4.8996    0.0000 O   0  0  0  0  0  0  0  0  0  0  0  0
    3.2363   -2.6754    0.0000 C   0  0  0  0  0  0  0  0  0  0  0  0
    4.5193   -3.4592    0.0000 N   0  0  0  0  0  0  0  0  0  0  0  0
   -0.7148   -4.8403    0.0000 C   0  0  0  0  0  0  0  0  0  0  0  0
   -2.0317   -5.5564    0.0000 O   0  0  0  0  0  0  0  0  0  0  0  0
    0.5682   -5.6157    0.0000 N   0  0  0  0  0  0  0  0  0  0  0  0
    0.5340   -7.1156    0.0000 O   0  0  0  0  0  0  0  0  0  0  0  0
    5.8363   -2.7347    0.0000 C   0  0  0  0  0  0  0  0  0  0  0  0
    7.1107   -3.5183    0.0000 C   0  0  0  0  0  0  0  0  0  0  0  0
    5.8704   -1.2349    0.0000 O   0  0  0  0  0  0  0  0  0  0  0  0
    7.0741   -5.0143    0.0000 C   0  0  0  0  0  0  0  0  0  0  0  0
    8.4276   -2.7938    0.0000 N   0  0  0  0  0  0  0  0  0  0  0  0
    9.7106   -3.5775    0.0000 C   0  0  0  0  0  0  0  0  0  0  0  0
    5.7746   -5.7615    0.0000 C   0  0  0  0  0  0  0  0  0  0  0  0
    4.4818   -5.0170    0.0000 C   0  0  0  0  0  0  0  0  0  0  0  0
    5.7763   -7.2617    0.0000 C   0  0  0  0  0  0  0  0  0  0  0  0
   11.0199   -2.8478    0.0000 O   0  0  0  0  0  0  0  0  0  0  0  0
    9.6753   -5.0810    0.0000 O   0  0  0  0  0  0  0  0  0  0  0  0
   10.9607   -5.8655    0.0000 C   0  0  0  0  0  0  0  0  0  0  0  0
   10.9241   -7.3650    0.0000 C   0  0  0  0  0  0  0  0  0  0  0  0
   12.2713   -5.1556    0.0000 C   0  0  0  0  0  0  0  0  0  0  0  0
   12.2500   -6.6353    0.0000 C   0  0  0  0  0  0  0  0  0  0  0  0
 17 18  2  0  0  0  0
  4  5  1  0  0  0  0
 17 19  1  0  0  0  0
  9 10  1  0  0  0  0
 19 20  1  0  0  0  0
  1  3  1  0  0  0  0
 16 21  1  0  0  0  0
 11 10  1  6  0  0  0
 21 22  1  0  0  0  0
  5  6  1  0  0  0  0
 21 23  2  0  0  0  0
 11 12  1  0  0  0  0
 22 24  1  1  0  0  0
 22 25  1  0  0  0  0
 12 13  1  0  0  0  0
 25 26  1  0  0  0  0
  5  7  2  0  0  0  0
 24 27  1  0  0  0  0
 13 14  2  0  0  0  0
 27 28  1  0  0  0  0
  1  4  1  0  0  0  0
 27 29  1  0  0  0  0
 13 15  1  0  0  0  0
 26 30  2  0  0  0  0
  6  8  1  0  0  0  0
 26 31  1  0  0  0  0
 15 16  1  0  0  0  0
 31 32  1  0  0  0  0
  1  2  2  0  0  0  0
 32 33  1  0  0  0  0
 11 17  1  0  0  0  0
 32 34  1  0  0  0  0
  8  9  1  0  0  0  0
 32 35  1  0  0  0  0
M  CHG  2   1   1   3  -1
M  END
> <Value>
4.598599459218456

> <Relation>
=

> <SourceURI>
mol:CHEMBL597106

$$$$

Generated by Molecular Materials Informatics

 36 35  0  0  0  0  0  0  0  0999 V2000
    3.9841   -3.0658    0.0000 N   0  3  0  0  0  0  0  0  0  0  0  0
    2.6670   -3.7821    0.0000 O   0  0  0  0  0  0  0  0  0  0  0  0
    4.0181   -1.5662    0.0000 O   0  5  0  0  0  0  0  0  0  0  0  0
    5.2670   -3.8411    0.0000 N   0  0  0  0  0  0  0  0  0  0  0  0
    6.5840   -3.1250    0.0000 C   0  0  0  0  0  0  0  0  0  0  0  0
    7.8666   -3.9004    0.0000 N   0  0  0  0  0  0  0  0  0  0  0  0
    6.6181   -1.6252    0.0000 N   0  0  0  0  0  0  0  0  0  0  0  0
    9.1836   -3.1843    0.0000 C   0  0  0  0  0  0  0  0  0  0  0  0
   10.4583   -3.9594    0.0000 C   0  0  0  0  0  0  0  0  0  0  0  0
   11.7753   -3.2433    0.0000 C   0  0  0  0  0  0  0  0  0  0  0  0
   13.0580   -4.0270    0.0000 C   0  0  0  0  0  0  0  0  0  0  0  0
   14.3750   -3.3025    0.0000 N   0  0  0  0  0  0  0  0  0  0  0  0
   15.6578   -4.0861    0.0000 C   0  0  0  0  0  0  0  0  0  0  0  0
   15.6238   -5.5859    0.0000 O   0  0  0  0  0  0  0  0  0  0  0  0
   16.9748   -3.3616    0.0000 C   0  0  0  0  0  0  0  0  0  0  0  0
   18.2578   -4.1455    0.0000 N   0  0  0  0  0  0  0  0  0  0  0  0
   13.0238   -5.5266    0.0000 C   0  0  0  0  0  0  0  0  0  0  0  0
   11.7068   -6.2427    0.0000 O   0  0  0  0  0  0  0  0  0  0  0  0
   14.3068   -6.3020    0.0000 N   0  0  0  0  0  0  0  0  0  0  0  0
   14.2727   -7.8018    0.0000 O   0  0  0  0  0  0  0  0  0  0  0  0
   19.5746   -3.4210    0.0000 C   0  0  0  0  0  0  0  0  0  0  0  0
   20.8491   -4.2045    0.0000 C   0  0  0  0  0  0  0  0  0  0  0  0
   19.6090   -1.9212    0.0000 O   0  0  0  0  0  0  0  0  0  0  0  0
   20.8126   -5.7005    0.0000 C   0  0  0  0  0  0  0  0  0  0  0  0
   22.1661   -3.4801    0.0000 N   0  0  0  0  0  0  0  0  0  0  0  0
   23.4492   -4.2638    0.0000 C   0  0  0  0  0  0  0  0  0  0  0  0
   19.5130   -6.4477    0.0000 C   0  0  0  0  0  0  0  0  0  0  0  0
   18.2204   -5.7032    0.0000 C   0  0  0  0  0  0  0  0  0  0  0  0
   19.5147   -7.9480    0.0000 C   0  0  0  0  0  0  0  0  0  0  0  0
   24.7583   -3.5342    0.0000 O   0  0  0  0  0  0  0  0  0  0  0  0
   23.4137   -5.7674    0.0000 O   0  0  0  0  0  0  0  0  0  0  0  0
   24.6991   -6.5518    0.0000 C   0  0  0  0  0  0  0  0  0  0  0  0
   24.6624   -8.0512    0.0000 C   0  0  0  0  0  0  0  0  0  0  0  0
   26.0097   -5.8419    0.0000 C   0  0  0  0  0  0  0  0  0  0  0  0
   25.9883   -7.3213    0.0000 C   0  0  0  0  0  0  0  0  0  0  0  0
   17.0088   -1.8703    0.0000 C   0  0  0  0  0  0  0  0  0  0  0  0
  4  5  1  0  0  0  0
 17 19  1  0  0  0  0
  9 10  1  0  0  0  0
 19 20  1  0  0  0  0
  1  3  1  0  0  0  0
 16 21  1  0  0  0  0
 11 10  1  6  0  0  0
 21 22  1  0  0  0  0
  5  6  1  0  0  0  0
 21 23  2  0  0  0  0
 11 12  1  0  0  0  0
 22 24  1  1  0  0  0
 22 25  1  0  0  0  0
 12 13  1  0  0  0  0
 25 26  1  0  0  0  0
  5  7  2  0  0  0  0
 24 27  1  0  0  0  0
 13 14  2  0  0  0  0
 27 28  1  0  0  0  0
  1  4  1  0  0  0  0
 27 29  1  0  0  0  0
 13 15  1  0  0  0  0
 26 30  2  0  0  0  0
  6  8  1  0  0  0  0
 26 31  1  0  0  0  0
 15 16  1  0  0  0  0
 31 32  1  0  0  0  0
  1  2  2  0  0  0  0
 32 33  1  0  0  0  0
 11 17  1  0  0  0  0
 32 34  1  0  0  0  0
  8  9  1  0  0  0  0
 32 35  1  0  0  0  0
 17 18  2  0  0  0  0
 15 36  1  6  0  0  0
M  CHG  2   1   1   3  -1
M  END
> <Value>
4.403402904373539

> <Relation>
=

> <SourceURI>
mol:CHEMBL597107

$$$$

Generated by Molecular Materials Informatics

 41 41  0  0  0  0  0  0  0  0999 V2000
   -9.3401   -8.5014    0.0000 N   0  3  0  0  0  0  0  0  0  0  0  0
  -10.6572   -9.2177    0.0000 O   0  0  0  0  0  0  0  0  0  0  0  0
   -9.3057   -7.0017    0.0000 O   0  5  0  0  0  0  0  0  0  0  0  0
   -8.0570   -9.2768    0.0000 N   0  0  0  0  0  0  0  0  0  0  0  0
   -6.7399   -8.5606    0.0000 C   0  0  0  0  0  0  0  0  0  0  0  0
   -5.4571   -9.3360    0.0000 N   0  0  0  0  0  0  0  0  0  0  0  0
   -6.7059   -7.0607    0.0000 N   0  0  0  0  0  0  0  0  0  0  0  0
   -4.1400   -8.6199    0.0000 C   0  0  0  0  0  0  0  0  0  0  0  0
   -2.8654   -9.3951    0.0000 C   0  0  0  0  0  0  0  0  0  0  0  0
   -1.5481   -8.6789    0.0000 C   0  0  0  0  0  0  0  0  0  0  0  0
   -0.2652   -9.4627    0.0000 C   0  0  0  0  0  0  0  0  0  0  0  0
    1.0519   -8.7384    0.0000 N   0  0  0  0  0  0  0  0  0  0  0  0
    2.3347   -9.5218    0.0000 C   0  0  0  0  0  0  0  0  0  0  0  0
    2.3005  -11.0217    0.0000 O   0  0  0  0  0  0  0  0  0  0  0  0
    3.6518   -8.7974    0.0000 C   0  0  0  0  0  0  0  0  0  0  0  0
    4.9348   -9.5812    0.0000 N   0  0  0  0  0  0  0  0  0  0  0  0
   -0.2995  -10.9624    0.0000 C   0  0  0  0  0  0  0  0  0  0  0  0
   -1.6166  -11.6786    0.0000 O   0  0  0  0  0  0  0  0  0  0  0  0
    0.9834  -11.7378    0.0000 N   0  0  0  0  0  0  0  0  0  0  0  0
    0.9493  -13.2378    0.0000 O   0  0  0  0  0  0  0  0  0  0  0  0
    6.2519   -8.8567    0.0000 C   0  0  0  0  0  0  0  0  0  0  0  0
    7.5265   -9.6402    0.0000 C   0  0  0  0  0  0  0  0  0  0  0  0
    6.2860   -7.3568    0.0000 O   0  0  0  0  0  0  0  0  0  0  0  0
    7.4898  -11.1363    0.0000 C   0  0  0  0  0  0  0  0  0  0  0  0
    8.8436   -8.9157    0.0000 N   0  0  0  0  0  0  0  0  0  0  0  0
   10.1265   -9.6995    0.0000 C   0  0  0  0  0  0  0  0  0  0  0  0
    6.1903  -11.8838    0.0000 C   0  0  0  0  0  0  0  0  0  0  0  0
   11.4360   -8.9699    0.0000 O   0  0  0  0  0  0  0  0  0  0  0  0
   10.0913  -11.2032    0.0000 O   0  0  0  0  0  0  0  0  0  0  0  0
   11.3766  -11.9877    0.0000 C   0  0  0  0  0  0  0  0  0  0  0  0
   11.3400  -13.4873    0.0000 C   0  0  0  0  0  0  0  0  0  0  0  0
   12.6875  -11.2777    0.0000 C   0  0  0  0  0  0  0  0  0  0  0  0
   12.6662  -12.7575    0.0000 C   0  0  0  0  0  0  0  0  0  0  0  0
    3.6858   -7.3059    0.0000 C   0  0  0  0  0  0  0  0  0  0  0  0
    4.9944   -6.5895    0.0000 C   0  0  0  0  0  0  0  0  0  0  0  0
    2.4109   -6.5307    0.0000 C   0  0  0  0  0  0  0  0  0  0  0  0
    4.8939  -11.1273    0.0000 C   0  0  0  0  0  0  0  0  0  0  0  0
    3.5953  -11.8734    0.0000 C   0  0  0  0  0  0  0  0  0  0  0  0
    3.5920  -13.3741    0.0000 C   0  0  0  0  0  0  0  0  0  0  0  0
    4.8981  -14.1256    0.0000 C   0  0  0  0  0  0  0  0  0  0  0  0
    6.1915  -13.3751    0.0000 C   0  0  0  0  0  0  0  0  0  0  0  0
 16 21  1  0  0  0  0
 11 10  1  6  0  0  0
 21 22  1  0  0  0  0
  5  6  1  0  0  0  0
 21 23  2  0  0  0  0
 11 12  1  0  0  0  0
 22 24  1  1  0  0  0
 22 25  1  0  0  0  0
 12 13  1  0  0  0  0
 25 26  1  0  0  0  0
  5  7  2  0  0  0  0
 24 27  1  0  0  0  0
 13 14  2  0  0  0  0
 26 28  2  0  0  0  0
  1  4  1  0  0  0  0
 26 29  1  0  0  0  0
 13 15  1  0  0  0  0
 29 30  1  0  0  0  0
  6  8  1  0  0  0  0
 30 31  1  0  0  0  0
 15 16  1  0  0  0  0
 30 32  1  0  0  0  0
  1  2  2  0  0  0  0
 30 33  1  0  0  0  0
 11 17  1  0  0  0  0
 15 34  1  6  0  0  0
  8  9  1  0  0  0  0
 34 35  1  0  0  0  0
 17 18  2  0  0  0  0
 34 36  1  0  0  0  0
  4  5  1  0  0  0  0
 27 37  2  0  0  0  0
 17 19  1  0  0  0  0
 37 38  1  0  0  0  0
  9 10  1  0  0  0  0
 38 39  2  0  0  0  0
 19 20  1  0  0  0  0
 39 40  1  0  0  0  0
  1  3  1  0  0  0  0
 40 41  2  0  0  0  0
 41 27  1  0  0  0  0
M  CHG  2   1   1   3  -1
M  END
> <Value>
4.480172006224281

> <Relation>
=

> <SourceURI>
mol:CHEMBL599356

$$$$

Generated by Molecular Materials Informatics

 42 42  0  0  0  0  0  0  0  0999 V2000
    3.5201   -8.5447    0.0000 N   0  3  0  0  0  0  0  0  0  0  0  0
    2.2026   -9.2610    0.0000 O   0  0  0  0  0  0  0  0  0  0  0  0
    3.5542   -7.0444    0.0000 O   0  5  0  0  0  0  0  0  0  0  0  0
    4.8033   -9.3203    0.0000 N   0  0  0  0  0  0  0  0  0  0  0  0
    6.1207   -8.6037    0.0000 C   0  0  0  0  0  0  0  0  0  0  0  0
    7.4040   -9.3795    0.0000 N   0  0  0  0  0  0  0  0  0  0  0  0
    6.1547   -7.1038    0.0000 N   0  0  0  0  0  0  0  0  0  0  0  0
    8.7214   -8.6632    0.0000 C   0  0  0  0  0  0  0  0  0  0  0  0
    9.9961   -9.4388    0.0000 C   0  0  0  0  0  0  0  0  0  0  0  0
   11.3137   -8.7223    0.0000 C   0  0  0  0  0  0  0  0  0  0  0  0
   12.5970   -9.5062    0.0000 C   0  0  0  0  0  0  0  0  0  0  0  0
   13.9144   -8.7815    0.0000 N   0  0  0  0  0  0  0  0  0  0  0  0
   15.1977   -9.5653    0.0000 C   0  0  0  0  0  0  0  0  0  0  0  0
   15.1633  -11.0656    0.0000 O   0  0  0  0  0  0  0  0  0  0  0  0
   16.5149   -8.8408    0.0000 C   0  0  0  0  0  0  0  0  0  0  0  0
   17.7982   -9.6245    0.0000 N   0  0  0  0  0  0  0  0  0  0  0  0
   12.5628  -11.0065    0.0000 C   0  0  0  0  0  0  0  0  0  0  0  0
   11.2454  -11.7228    0.0000 O   0  0  0  0  0  0  0  0  0  0  0  0
   13.8459  -11.7819    0.0000 N   0  0  0  0  0  0  0  0  0  0  0  0
   13.8117  -13.2822    0.0000 O   0  0  0  0  0  0  0  0  0  0  0  0
   19.1156   -8.8998    0.0000 C   0  0  0  0  0  0  0  0  0  0  0  0
   20.3907   -9.6838    0.0000 C   0  0  0  0  0  0  0  0  0  0  0  0
   19.1498   -7.3996    0.0000 O   0  0  0  0  0  0  0  0  0  0  0  0
   20.3538  -11.1801    0.0000 C   0  0  0  0  0  0  0  0  0  0  0  0
   21.7081   -8.9593    0.0000 N   0  0  0  0  0  0  0  0  0  0  0  0
   22.9912   -9.7430    0.0000 C   0  0  0  0  0  0  0  0  0  0  0  0
   19.0542  -11.9277    0.0000 C   0  0  0  0  0  0  0  0  0  0  0  0
   24.3011   -9.0133    0.0000 O   0  0  0  0  0  0  0  0  0  0  0  0
   22.9559  -11.2470    0.0000 O   0  0  0  0  0  0  0  0  0  0  0  0
   24.2415  -12.0318    0.0000 C   0  0  0  0  0  0  0  0  0  0  0  0
   24.2052  -13.5315    0.0000 C   0  0  0  0  0  0  0  0  0  0  0  0
   25.5528  -11.3217    0.0000 C   0  0  0  0  0  0  0  0  0  0  0  0
   25.5315  -12.8016    0.0000 C   0  0  0  0  0  0  0  0  0  0  0  0
   16.5491   -7.3487    0.0000 C   0  0  0  0  0  0  0  0  0  0  0  0
   15.2738   -6.5734    0.0000 C   0  0  0  0  0  0  0  0  0  0  0  0
   17.7575  -11.1712    0.0000 C   0  0  0  0  0  0  0  0  0  0  0  0
   16.4586  -11.9175    0.0000 C   0  0  0  0  0  0  0  0  0  0  0  0
   16.4551  -13.4187    0.0000 C   0  0  0  0  0  0  0  0  0  0  0  0
   17.7616  -14.1701    0.0000 C   0  0  0  0  0  0  0  0  0  0  0  0
   19.0552  -13.4196    0.0000 C   0  0  0  0  0  0  0  0  0  0  0  0
   15.3078   -5.0815    0.0000 C   0  0  0  0  0  0  0  0  0  0  0  0
   13.9649   -7.2900    0.0000 C   0  0  0  0  0  0  0  0  0  0  0  0
 11 10  1  6  0  0  0
 21 22  1  0  0  0  0
  5  6  1  0  0  0  0
 21 23  2  0  0  0  0
 11 12  1  0  0  0  0
 22 24  1  1  0  0  0
 22 25  1  0  0  0  0
 12 13  1  0  0  0  0
 25 26  1  0  0  0  0
  5  7  2  0  0  0  0
 24 27  1  0  0  0  0
 13 14  2  0  0  0  0
 26 28  2  0  0  0  0
  1  4  1  0  0  0  0
 26 29  1  0  0  0  0
 13 15  1  0  0  0  0
 29 30  1  0  0  0  0
  6  8  1  0  0  0  0
 30 31  1  0  0  0  0
 15 16  1  0  0  0  0
 30 32  1  0  0  0  0
  1  2  2  0  0  0  0
 30 33  1  0  0  0  0
 11 17  1  0  0  0  0
 15 34  1  6  0  0  0
  8  9  1  0  0  0  0
 34 35  1  0  0  0  0
 17 18  2  0  0  0  0
 27 36  2  0  0  0  0
  4  5  1  0  0  0  0
 36 37  1  0  0  0  0
 17 19  1  0  0  0  0
 37 38  2  0  0  0  0
  9 10  1  0  0  0  0
 38 39  1  0  0  0  0
 19 20  1  0  0  0  0
 39 40  2  0  0  0  0
 40 27  1  0  0  0  0
  1  3  1  0  0  0  0
 35 41  1  0  0  0  0
 16 21  1  0  0  0  0
 35 42  1  0  0  0  0
M  CHG  2   1   1   3  -1
M  END
> <Value>
5.075720713938118

> <Relation>
=

> <SourceURI>
mol:CHEMBL591441

$$$$

Generated by Molecular Materials Informatics

 41 42  0  0  0  0  0  0  0  0999 V2000
   -9.3794  -14.6332    0.0000 N   0  3  0  0  0  0  0  0  0  0  0  0
  -10.6973  -15.3500    0.0000 O   0  0  0  0  0  0  0  0  0  0  0  0
   -9.3451  -13.1325    0.0000 O   0  5  0  0  0  0  0  0  0  0  0  0
   -8.0957  -15.4090    0.0000 N   0  0  0  0  0  0  0  0  0  0  0  0
   -6.7778  -14.6925    0.0000 C   0  0  0  0  0  0  0  0  0  0  0  0
   -5.4941  -15.4683    0.0000 N   0  0  0  0  0  0  0  0  0  0  0  0
   -6.7435  -13.1917    0.0000 N   0  0  0  0  0  0  0  0  0  0  0  0
   -4.1760  -14.7518    0.0000 C   0  0  0  0  0  0  0  0  0  0  0  0
   -2.9006  -15.5275    0.0000 C   0  0  0  0  0  0  0  0  0  0  0  0
   -1.5827  -14.8108    0.0000 C   0  0  0  0  0  0  0  0  0  0  0  0
   -0.2990  -15.5952    0.0000 C   0  0  0  0  0  0  0  0  0  0  0  0
    1.0189  -14.8702    0.0000 N   0  0  0  0  0  0  0  0  0  0  0  0
    2.3028  -15.6543    0.0000 C   0  0  0  0  0  0  0  0  0  0  0  0
    2.2685  -17.1551    0.0000 O   0  0  0  0  0  0  0  0  0  0  0  0
    3.6207  -14.9293    0.0000 C   0  0  0  0  0  0  0  0  0  0  0  0
    4.9045  -15.7137    0.0000 N   0  0  0  0  0  0  0  0  0  0  0  0
   -0.3331  -17.0958    0.0000 C   0  0  0  0  0  0  0  0  0  0  0  0
   -1.6510  -17.8124    0.0000 O   0  0  0  0  0  0  0  0  0  0  0  0
    0.9507  -17.8718    0.0000 N   0  0  0  0  0  0  0  0  0  0  0  0
    0.9164  -19.3726    0.0000 O   0  0  0  0  0  0  0  0  0  0  0  0
    6.2223  -14.9887    0.0000 C   0  0  0  0  0  0  0  0  0  0  0  0
    7.4988  -15.7721    0.0000 C   0  0  0  0  0  0  0  0  0  0  0  0
    6.2564  -13.4879    0.0000 O   0  0  0  0  0  0  0  0  0  0  0  0
    3.6545  -13.4369    0.0000 C   0  0  0  0  0  0  0  0  0  0  0  0
    2.3791  -12.6611    0.0000 C   0  0  0  0  0  0  0  0  0  0  0  0
    2.4179  -11.1684    0.0000 C   0  0  0  0  0  0  0  0  0  0  0  0
    1.1438  -10.3930    0.0000 C   0  0  0  0  0  0  0  0  0  0  0  0
   -0.1676  -11.1100    0.0000 C   0  0  0  0  0  0  0  0  0  0  0  0
   -0.1970  -12.6103    0.0000 C   0  0  0  0  0  0  0  0  0  0  0  0
    1.0784  -13.3790    0.0000 C   0  0  0  0  0  0  0  0  0  0  0  0
    8.1316  -17.1277    0.0000 N   0  0  0  0  0  0  0  0  0  0  0  0
    9.6179  -16.9475    0.0000 C   0  0  0  0  0  0  0  0  0  0  0  0
    9.9059  -15.4781    0.0000 C   0  0  0  0  0  0  0  0  0  0  0  0
    8.5977  -14.7504    0.0000 C   0  0  0  0  0  0  0  0  0  0  0  0
    7.4070  -18.4329    0.0000 C   0  0  0  0  0  0  0  0  0  0  0  0
    8.1754  -19.7030    0.0000 O   0  0  0  0  0  0  0  0  0  0  0  0
    5.9058  -18.4552    0.0000 O   0  0  0  0  0  0  0  0  0  0  0  0
    5.1723  -19.7633    0.0000 C   0  0  0  0  0  0  0  0  0  0  0  0
    3.6799  -19.7860    0.0000 C   0  0  0  0  0  0  0  0  0  0  0  0
    5.9341  -21.0372    0.0000 C   0  0  0  0  0  0  0  0  0  0  0  0
    4.4618  -21.0746    0.0000 C   0  0  0  0  0  0  0  0  0  0  0  0
 16 21  1  0  0  0  0
 11 10  1  6  0  0  0
 22 21  1  6  0  0  0
  5  6  1  0  0  0  0
 21 23  2  0  0  0  0
 11 12  1  0  0  0  0
 15 24  1  6  0  0  0
 24 25  1  0  0  0  0
 12 13  1  0  0  0  0
 25 26  2  0  0  0  0
  5  7  2  0  0  0  0
 26 27  1  0  0  0  0
 13 14  2  0  0  0  0
 27 28  2  0  0  0  0
  1  4  1  0  0  0  0
 28 29  1  0  0  0  0
 13 15  1  0  0  0  0
 29 30  2  0  0  0  0
 30 25  1  0  0  0  0
 22 31  1  0  0  0  0
  6  8  1  0  0  0  0
 15 16  1  0  0  0  0
  1  2  2  0  0  0  0
 11 17  1  0  0  0  0
 31 32  1  0  0  0  0
 32 33  1  0  0  0  0
 33 34  1  0  0  0  0
 34 22  1  0  0  0  0
  8  9  1  0  0  0  0
 31 35  1  0  0  0  0
 17 18  2  0  0  0  0
 35 36  2  0  0  0  0
  4  5  1  0  0  0  0
 35 37  1  0  0  0  0
 17 19  1  0  0  0  0
 37 38  1  0  0  0  0
  9 10  1  0  0  0  0
 38 39  1  0  0  0  0
 19 20  1  0  0  0  0
 38 40  1  0  0  0  0
  1  3  1  0  0  0  0
 38 41  1  0  0  0  0
M  CHG  2   1   1   3  -1
M  END
> <Value>
2.874161036004996

> <Relation>
=

> <SourceURI>
mol:CHEMBL605558

$$$$

Generated by Molecular Materials Informatics

 37 38  0  0  0  0  0  0  0  0999 V2000
   -8.5675  -20.2123    0.0000 N   0  3  0  0  0  0  0  0  0  0  0  0
   -9.8870  -20.9299    0.0000 O   0  0  0  0  0  0  0  0  0  0  0  0
   -8.5331  -18.7098    0.0000 O   0  5  0  0  0  0  0  0  0  0  0  0
   -7.2823  -20.9891    0.0000 N   0  0  0  0  0  0  0  0  0  0  0  0
   -5.9626  -20.2717    0.0000 C   0  0  0  0  0  0  0  0  0  0  0  0
   -4.6773  -21.0485    0.0000 N   0  0  0  0  0  0  0  0  0  0  0  0
   -5.9283  -18.7690    0.0000 N   0  0  0  0  0  0  0  0  0  0  0  0
   -3.3576  -20.3310    0.0000 C   0  0  0  0  0  0  0  0  0  0  0  0
   -2.0807  -21.1076    0.0000 C   0  0  0  0  0  0  0  0  0  0  0  0
   -0.7611  -20.3902    0.0000 C   0  0  0  0  0  0  0  0  0  0  0  0
    0.5241  -21.1754    0.0000 C   0  0  0  0  0  0  0  0  0  0  0  0
    1.8437  -20.4497    0.0000 N   0  0  0  0  0  0  0  0  0  0  0  0
    3.1291  -21.2346    0.0000 C   0  0  0  0  0  0  0  0  0  0  0  0
    3.0949  -22.7374    0.0000 O   0  0  0  0  0  0  0  0  0  0  0  0
    0.4901  -22.6779    0.0000 C   0  0  0  0  0  0  0  0  0  0  0  0
   -0.8294  -23.3955    0.0000 O   0  0  0  0  0  0  0  0  0  0  0  0
    1.7753  -23.4549    0.0000 N   0  0  0  0  0  0  0  0  0  0  0  0
    1.7411  -24.9576    0.0000 O   0  0  0  0  0  0  0  0  0  0  0  0
    4.4410  -20.5183    0.0000 C   0  0  0  0  0  0  0  0  0  0  0  0
    5.6386  -21.4015    0.0000 N   0  0  0  0  0  0  0  0  0  0  0  0
    6.8568  -20.5357    0.0000 C   0  0  0  0  0  0  0  0  0  0  0  0
    6.4100  -19.1091    0.0000 C   0  0  0  0  0  0  0  0  0  0  0  0
    4.9156  -19.0936    0.0000 C   0  0  0  0  0  0  0  0  0  0  0  0
    5.6252  -22.8963    0.0000 C   0  0  0  0  0  0  0  0  0  0  0  0
    6.9137  -23.6544    0.0000 C   0  0  0  0  0  0  0  0  0  0  0  0
    4.3241  -23.6320    0.0000 O   0  0  0  0  0  0  0  0  0  0  0  0
    7.3214  -25.0877    0.0000 N   0  0  0  0  0  0  0  0  0  0  0  0
    8.8151  -25.1486    0.0000 C   0  0  0  0  0  0  0  0  0  0  0  0
    9.3338  -23.7468    0.0000 C   0  0  0  0  0  0  0  0  0  0  0  0
    8.1607  -22.8205    0.0000 C   0  0  0  0  0  0  0  0  0  0  0  0
    6.5703  -26.3799    0.0000 C   0  0  0  0  0  0  0  0  0  0  0  0
    7.3174  -27.6663    0.0000 O   0  0  0  0  0  0  0  0  0  0  0  0
    5.0705  -26.3716    0.0000 O   0  0  0  0  0  0  0  0  0  0  0  0
    4.3100  -27.6664    0.0000 C   0  0  0  0  0  0  0  0  0  0  0  0
    2.8154  -27.6595    0.0000 C   0  0  0  0  0  0  0  0  0  0  0  0
    5.0470  -28.9571    0.0000 C   0  0  0  0  0  0  0  0  0  0  0  0
    3.5729  -28.9649    0.0000 C   0  0  0  0  0  0  0  0  0  0  0  0
 19 13  1  6  0  0  0
 19 20  1  0  0  0  0
  9 10  1  0  0  0  0
  1  3  1  0  0  0  0
 11 10  1  6  0  0  0
  5  6  1  0  0  0  0
 20 21  1  0  0  0  0
 21 22  1  0  0  0  0
 22 23  1  0  0  0  0
 23 19  1  0  0  0  0
 11 12  1  0  0  0  0
 20 24  1  0  0  0  0
 25 24  1  6  0  0  0
 12 13  1  0  0  0  0
 24 26  2  0  0  0  0
 25 27  1  0  0  0  0
  5  7  2  0  0  0  0
 13 14  2  0  0  0  0
  1  4  1  0  0  0  0
 11 15  1  0  0  0  0
 27 28  1  0  0  0  0
 28 29  1  0  0  0  0
 29 30  1  0  0  0  0
 30 25  1  0  0  0  0
  6  8  1  0  0  0  0
 27 31  1  0  0  0  0
 15 16  2  0  0  0  0
 31 32  2  0  0  0  0
  1  2  2  0  0  0  0
 31 33  1  0  0  0  0
 15 17  1  0  0  0  0
 33 34  1  0  0  0  0
  8  9  1  0  0  0  0
 34 35  1  0  0  0  0
 17 18  1  0  0  0  0
 34 36  1  0  0  0  0
  4  5  1  0  0  0  0
 34 37  1  0  0  0  0
M  CHG  2   1   1   3  -1
M  END
> <Value>
4.375717904164332

> <Relation>
=

> <SourceURI>
mol:CHEMBL598542

$$$$

Generated by Molecular Materials Informatics

 28 27  0  0  0  0  0  0  0  0999 V2000
   -9.1373   -0.6988    0.0000 N   0  3  0  0  0  0  0  0  0  0  0  0
  -10.4546   -1.4150    0.0000 O   0  0  0  0  0  0  0  0  0  0  0  0
   -9.1033    0.8012    0.0000 O   0  5  0  0  0  0  0  0  0  0  0  0
   -7.8543   -1.4742    0.0000 N   0  0  0  0  0  0  0  0  0  0  0  0
   -6.5372   -0.7582    0.0000 C   0  0  0  0  0  0  0  0  0  0  0  0
   -5.2543   -1.5334    0.0000 N   0  0  0  0  0  0  0  0  0  0  0  0
   -6.5030    0.7418    0.0000 N   0  0  0  0  0  0  0  0  0  0  0  0
   -3.9372   -0.8173    0.0000 C   0  0  0  0  0  0  0  0  0  0  0  0
   -2.6624   -1.5927    0.0000 C   0  0  0  0  0  0  0  0  0  0  0  0
   -1.3452   -0.8765    0.0000 C   0  0  0  0  0  0  0  0  0  0  0  0
   -0.0622   -1.6601    0.0000 C   0  0  0  0  0  0  0  0  0  0  0  0
    1.2548   -0.9356    0.0000 N   0  0  0  0  0  0  0  0  0  0  0  0
    2.5377   -1.7193    0.0000 C   0  0  0  0  0  0  0  0  0  0  0  0
    2.5038   -3.2191    0.0000 O   0  0  0  0  0  0  0  0  0  0  0  0
    3.8549   -0.9948    0.0000 C   0  0  0  0  0  0  0  0  0  0  0  0
    5.1381   -1.7784    0.0000 N   0  0  0  0  0  0  0  0  0  0  0  0
   -0.0966   -3.1601    0.0000 C   0  0  0  0  0  0  0  0  0  0  0  0
   -1.4137   -3.8763    0.0000 O   0  0  0  0  0  0  0  0  0  0  0  0
    1.1866   -3.9355    0.0000 N   0  0  0  0  0  0  0  0  0  0  0  0
    1.1524   -5.4353    0.0000 O   0  0  0  0  0  0  0  0  0  0  0  0
    6.4552   -1.0539    0.0000 C   0  0  0  0  0  0  0  0  0  0  0  0
    7.7297   -1.8377    0.0000 C   0  0  0  0  0  0  0  0  0  0  0  0
    6.4894    0.4457    0.0000 O   0  0  0  0  0  0  0  0  0  0  0  0
    7.6932   -3.3340    0.0000 C   0  0  0  0  0  0  0  0  0  0  0  0
    9.0468   -1.1133    0.0000 N   0  0  0  0  0  0  0  0  0  0  0  0
    6.3934   -4.0813    0.0000 C   0  0  0  0  0  0  0  0  0  0  0  0
    5.1006   -3.3367    0.0000 C   0  0  0  0  0  0  0  0  0  0  0  0
    6.3951   -5.5814    0.0000 C   0  0  0  0  0  0  0  0  0  0  0  0
  1  4  1  0  0  0  0
 13 15  1  0  0  0  0
  6  8  1  0  0  0  0
 15 16  1  0  0  0  0
  1  2  2  0  0  0  0
 11 17  1  0  0  0  0
  8  9  1  0  0  0  0
 17 18  2  0  0  0  0
  4  5  1  0  0  0  0
 17 19  1  0  0  0  0
  9 10  1  0  0  0  0
 19 20  1  0  0  0  0
  1  3  1  0  0  0  0
 16 21  1  0  0  0  0
 11 10  1  6  0  0  0
 21 22  1  0  0  0  0
  5  6  1  0  0  0  0
 21 23  2  0  0  0  0
 11 12  1  0  0  0  0
 22 24  1  1  0  0  0
 22 25  1  0  0  0  0
 12 13  1  0  0  0  0
 24 26  1  0  0  0  0
  5  7  2  0  0  0  0
 26 27  1  0  0  0  0
 13 14  2  0  0  0  0
 26 28  1  0  0  0  0
M  CHG  2   1   1   3  -1
M  END
> <Value>
3.6455073994105636

> <Relation>
=

> <SourceURI>
mol:CHEMBL591675

$$$$

Generated by Molecular Materials Informatics

 29 28  0  0  0  0  0  0  0  0999 V2000
    4.5994   -1.3826    0.0000 N   0  3  0  0  0  0  0  0  0  0  0  0
    3.2818   -2.0990    0.0000 O   0  0  0  0  0  0  0  0  0  0  0  0
    4.6334    0.1176    0.0000 O   0  5  0  0  0  0  0  0  0  0  0  0
    5.8826   -2.1582    0.0000 N   0  0  0  0  0  0  0  0  0  0  0  0
    7.2000   -1.4419    0.0000 C   0  0  0  0  0  0  0  0  0  0  0  0
    8.4831   -2.2173    0.0000 N   0  0  0  0  0  0  0  0  0  0  0  0
    7.2342    0.0584    0.0000 N   0  0  0  0  0  0  0  0  0  0  0  0
    9.8005   -1.5010    0.0000 C   0  0  0  0  0  0  0  0  0  0  0  0
   11.0756   -2.2767    0.0000 C   0  0  0  0  0  0  0  0  0  0  0  0
   12.3930   -1.5604    0.0000 C   0  0  0  0  0  0  0  0  0  0  0  0
   13.6760   -2.3442    0.0000 C   0  0  0  0  0  0  0  0  0  0  0  0
   14.9934   -1.6195    0.0000 N   0  0  0  0  0  0  0  0  0  0  0  0
   16.2767   -2.4034    0.0000 C   0  0  0  0  0  0  0  0  0  0  0  0
   16.2427   -3.9035    0.0000 O   0  0  0  0  0  0  0  0  0  0  0  0
   17.5941   -1.6787    0.0000 C   0  0  0  0  0  0  0  0  0  0  0  0
   18.8775   -2.4625    0.0000 N   0  0  0  0  0  0  0  0  0  0  0  0
   13.6418   -3.8444    0.0000 C   0  0  0  0  0  0  0  0  0  0  0  0
   12.3244   -4.5606    0.0000 O   0  0  0  0  0  0  0  0  0  0  0  0
   14.9253   -4.6200    0.0000 N   0  0  0  0  0  0  0  0  0  0  0  0
   14.8911   -6.1199    0.0000 O   0  0  0  0  0  0  0  0  0  0  0  0
   20.1947   -1.7378    0.0000 C   0  0  0  0  0  0  0  0  0  0  0  0
   21.4696   -2.5217    0.0000 C   0  0  0  0  0  0  0  0  0  0  0  0
   20.2291   -0.2377    0.0000 O   0  0  0  0  0  0  0  0  0  0  0  0
   21.4330   -4.0182    0.0000 C   0  0  0  0  0  0  0  0  0  0  0  0
   22.7870   -1.7971    0.0000 N   0  0  0  0  0  0  0  0  0  0  0  0
   20.1331   -4.7658    0.0000 C   0  0  0  0  0  0  0  0  0  0  0  0
   18.8400   -4.0211    0.0000 C   0  0  0  0  0  0  0  0  0  0  0  0
   20.1347   -6.2662    0.0000 C   0  0  0  0  0  0  0  0  0  0  0  0
   17.6281   -0.1868    0.0000 C   0  0  0  0  0  0  0  0  0  0  0  0
 13 15  1  0  0  0  0
  6  8  1  0  0  0  0
 15 16  1  0  0  0  0
  1  2  2  0  0  0  0
 11 17  1  0  0  0  0
  8  9  1  0  0  0  0
 17 18  2  0  0  0  0
  4  5  1  0  0  0  0
 17 19  1  0  0  0  0
  9 10  1  0  0  0  0
 19 20  1  0  0  0  0
  1  3  1  0  0  0  0
 16 21  1  0  0  0  0
 11 10  1  6  0  0  0
 21 22  1  0  0  0  0
  5  6  1  0  0  0  0
 21 23  2  0  0  0  0
 11 12  1  0  0  0  0
 22 24  1  1  0  0  0
 22 25  1  0  0  0  0
 12 13  1  0  0  0  0
 24 26  1  0  0  0  0
  5  7  2  0  0  0  0
 26 27  1  0  0  0  0
 13 14  2  0  0  0  0
 26 28  1  0  0  0  0
  1  4  1  0  0  0  0
 15 29  1  6  0  0  0
M  CHG  2   1   1   3  -1
M  END
> <Value>
3.802168306671097

> <Relation>
=

> <SourceURI>
mol:CHEMBL607850

$$$$

Generated by Molecular Materials Informatics

 34 34  0  0  0  0  0  0  0  0999 V2000
   -8.7260   -6.7948    0.0000 N   0  3  0  0  0  0  0  0  0  0  0  0
  -10.0437   -7.5112    0.0000 O   0  0  0  0  0  0  0  0  0  0  0  0
   -8.6918   -5.2941    0.0000 O   0  5  0  0  0  0  0  0  0  0  0  0
   -7.4423   -7.5705    0.0000 N   0  0  0  0  0  0  0  0  0  0  0  0
   -6.1246   -6.8540    0.0000 C   0  0  0  0  0  0  0  0  0  0  0  0
   -4.8412   -7.6296    0.0000 N   0  0  0  0  0  0  0  0  0  0  0  0
   -6.0906   -5.3534    0.0000 N   0  0  0  0  0  0  0  0  0  0  0  0
   -3.5235   -6.9131    0.0000 C   0  0  0  0  0  0  0  0  0  0  0  0
   -2.2483   -7.6889    0.0000 C   0  0  0  0  0  0  0  0  0  0  0  0
   -0.9304   -6.9724    0.0000 C   0  0  0  0  0  0  0  0  0  0  0  0
    0.3532   -7.7563    0.0000 C   0  0  0  0  0  0  0  0  0  0  0  0
    1.6709   -7.0315    0.0000 N   0  0  0  0  0  0  0  0  0  0  0  0
    2.9542   -7.8158    0.0000 C   0  0  0  0  0  0  0  0  0  0  0  0
    2.9201   -9.3160    0.0000 O   0  0  0  0  0  0  0  0  0  0  0  0
    4.2720   -7.0909    0.0000 C   0  0  0  0  0  0  0  0  0  0  0  0
    5.5555   -7.8749    0.0000 N   0  0  0  0  0  0  0  0  0  0  0  0
    0.3188   -9.2569    0.0000 C   0  0  0  0  0  0  0  0  0  0  0  0
   -0.9989   -9.9734    0.0000 O   0  0  0  0  0  0  0  0  0  0  0  0
    1.6023  -10.0327    0.0000 N   0  0  0  0  0  0  0  0  0  0  0  0
    1.5682  -11.5331    0.0000 O   0  0  0  0  0  0  0  0  0  0  0  0
    6.8732   -7.1500    0.0000 C   0  0  0  0  0  0  0  0  0  0  0  0
    8.1486   -7.9341    0.0000 C   0  0  0  0  0  0  0  0  0  0  0  0
    6.9074   -5.6496    0.0000 O   0  0  0  0  0  0  0  0  0  0  0  0
    8.1117   -9.4309    0.0000 C   0  0  0  0  0  0  0  0  0  0  0  0
    9.4661   -7.2093    0.0000 N   0  0  0  0  0  0  0  0  0  0  0  0
    6.8118  -10.1787    0.0000 C   0  0  0  0  0  0  0  0  0  0  0  0
    4.3060   -5.5987    0.0000 C   0  0  0  0  0  0  0  0  0  0  0  0
    5.6151   -4.8818    0.0000 C   0  0  0  0  0  0  0  0  0  0  0  0
    3.0304   -4.8231    0.0000 C   0  0  0  0  0  0  0  0  0  0  0  0
    5.5146   -9.4218    0.0000 C   0  0  0  0  0  0  0  0  0  0  0  0
    4.2154  -10.1683    0.0000 C   0  0  0  0  0  0  0  0  0  0  0  0
    4.2121  -11.6697    0.0000 C   0  0  0  0  0  0  0  0  0  0  0  0
    5.5188  -12.4216    0.0000 C   0  0  0  0  0  0  0  0  0  0  0  0
    6.8129  -11.6708    0.0000 C   0  0  0  0  0  0  0  0  0  0  0  0
  8  9  1  0  0  0  0
 17 18  2  0  0  0  0
  4  5  1  0  0  0  0
 17 19  1  0  0  0  0
  9 10  1  0  0  0  0
 19 20  1  0  0  0  0
  1  3  1  0  0  0  0
 16 21  1  0  0  0  0
 11 10  1  6  0  0  0
 21 22  1  0  0  0  0
  5  6  1  0  0  0  0
 21 23  2  0  0  0  0
 11 12  1  0  0  0  0
 22 24  1  1  0  0  0
 22 25  1  0  0  0  0
 12 13  1  0  0  0  0
 24 26  1  0  0  0  0
  5  7  2  0  0  0  0
 15 27  1  6  0  0  0
 13 14  2  0  0  0  0
 27 28  1  0  0  0  0
  1  4  1  0  0  0  0
 27 29  1  0  0  0  0
 13 15  1  0  0  0  0
 26 30  2  0  0  0  0
  6  8  1  0  0  0  0
 30 31  1  0  0  0  0
 15 16  1  0  0  0  0
 31 32  2  0  0  0  0
  1  2  2  0  0  0  0
 32 33  1  0  0  0  0
 11 17  1  0  0  0  0
 33 34  2  0  0  0  0
 34 26  1  0  0  0  0
M  CHG  2   1   1   3  -1
M  END
> <Value>
4.006123085058789

> <Relation>
=

> <SourceURI>
mol:CHEMBL599783

$$$$

Generated by Molecular Materials Informatics

 35 35  0  0  0  0  0  0  0  0999 V2000
    4.1380   -6.8395    0.0000 N   0  3  0  0  0  0  0  0  0  0  0  0
    2.8202   -7.5561    0.0000 O   0  0  0  0  0  0  0  0  0  0  0  0
    4.1721   -5.3390    0.0000 O   0  5  0  0  0  0  0  0  0  0  0  0
    5.4217   -7.6152    0.0000 N   0  0  0  0  0  0  0  0  0  0  0  0
    6.7393   -6.8988    0.0000 C   0  0  0  0  0  0  0  0  0  0  0  0
    8.0229   -7.6744    0.0000 N   0  0  0  0  0  0  0  0  0  0  0  0
    6.7735   -5.3981    0.0000 N   0  0  0  0  0  0  0  0  0  0  0  0
    9.3407   -6.9580    0.0000 C   0  0  0  0  0  0  0  0  0  0  0  0
   10.6157   -7.7337    0.0000 C   0  0  0  0  0  0  0  0  0  0  0  0
   11.9335   -7.0171    0.0000 C   0  0  0  0  0  0  0  0  0  0  0  0
   13.2170   -7.8013    0.0000 C   0  0  0  0  0  0  0  0  0  0  0  0
   14.5348   -7.0765    0.0000 N   0  0  0  0  0  0  0  0  0  0  0  0
   15.8184   -7.8604    0.0000 C   0  0  0  0  0  0  0  0  0  0  0  0
   15.7840   -9.3610    0.0000 O   0  0  0  0  0  0  0  0  0  0  0  0
   17.1360   -7.1356    0.0000 C   0  0  0  0  0  0  0  0  0  0  0  0
   18.4195   -7.9197    0.0000 N   0  0  0  0  0  0  0  0  0  0  0  0
   13.1829   -9.3018    0.0000 C   0  0  0  0  0  0  0  0  0  0  0  0
   11.8651  -10.0182    0.0000 O   0  0  0  0  0  0  0  0  0  0  0  0
   14.4664  -10.0775    0.0000 N   0  0  0  0  0  0  0  0  0  0  0  0
   14.4321  -11.5781    0.0000 O   0  0  0  0  0  0  0  0  0  0  0  0
   19.7373   -7.1949    0.0000 C   0  0  0  0  0  0  0  0  0  0  0  0
   21.0125   -7.9787    0.0000 C   0  0  0  0  0  0  0  0  0  0  0  0
   19.7715   -5.6943    0.0000 O   0  0  0  0  0  0  0  0  0  0  0  0
   20.9758   -9.4757    0.0000 C   0  0  0  0  0  0  0  0  0  0  0  0
   22.3303   -7.2540    0.0000 N   0  0  0  0  0  0  0  0  0  0  0  0
   19.6757  -10.2234    0.0000 C   0  0  0  0  0  0  0  0  0  0  0  0
   17.1701   -5.6434    0.0000 C   0  0  0  0  0  0  0  0  0  0  0  0
   15.8946   -4.8677    0.0000 C   0  0  0  0  0  0  0  0  0  0  0  0
   18.3788   -9.4665    0.0000 C   0  0  0  0  0  0  0  0  0  0  0  0
   17.0796  -10.2131    0.0000 C   0  0  0  0  0  0  0  0  0  0  0  0
   17.0762  -11.7144    0.0000 C   0  0  0  0  0  0  0  0  0  0  0  0
   18.3830  -12.4663    0.0000 C   0  0  0  0  0  0  0  0  0  0  0  0
   19.6770  -11.7155    0.0000 C   0  0  0  0  0  0  0  0  0  0  0  0
   15.9285   -3.3754    0.0000 C   0  0  0  0  0  0  0  0  0  0  0  0
   14.5853   -5.5846    0.0000 C   0  0  0  0  0  0  0  0  0  0  0  0
 17 18  2  0  0  0  0
  4  5  1  0  0  0  0
 17 19  1  0  0  0  0
  9 10  1  0  0  0  0
 19 20  1  0  0  0  0
  1  3  1  0  0  0  0
 16 21  1  0  0  0  0
 11 10  1  6  0  0  0
 21 22  1  0  0  0  0
  5  6  1  0  0  0  0
 21 23  2  0  0  0  0
 11 12  1  0  0  0  0
 22 24  1  1  0  0  0
 22 25  1  0  0  0  0
 12 13  1  0  0  0  0
 24 26  1  0  0  0  0
  5  7  2  0  0  0  0
 15 27  1  6  0  0  0
 13 14  2  0  0  0  0
 27 28  1  0  0  0  0
  1  4  1  0  0  0  0
 26 29  2  0  0  0  0
 13 15  1  0  0  0  0
 29 30  1  0  0  0  0
  6  8  1  0  0  0  0
 30 31  2  0  0  0  0
 15 16  1  0  0  0  0
 31 32  1  0  0  0  0
  1  2  2  0  0  0  0
 32 33  2  0  0  0  0
 33 26  1  0  0  0  0
 11 17  1  0  0  0  0
 28 34  1  0  0  0  0
  8  9  1  0  0  0  0
 28 35  1  0  0  0  0
M  CHG  2   1   1   3  -1
M  END
> <Value>
4.450996737974212

> <Relation>
=

> <SourceURI>
mol:CHEMBL598554

$$$$

Generated by Molecular Materials Informatics

 34 35  0  0  0  0  0  0  0  0999 V2000
   -9.6258  -13.3011    0.0000 N   0  3  0  0  0  0  0  0  0  0  0  0
  -10.9436  -14.0176    0.0000 O   0  0  0  0  0  0  0  0  0  0  0  0
   -9.5917  -11.8003    0.0000 O   0  5  0  0  0  0  0  0  0  0  0  0
   -8.3421  -14.0770    0.0000 N   0  0  0  0  0  0  0  0  0  0  0  0
   -7.0242  -13.3604    0.0000 C   0  0  0  0  0  0  0  0  0  0  0  0
   -5.7405  -14.1360    0.0000 N   0  0  0  0  0  0  0  0  0  0  0  0
   -6.9900  -11.8595    0.0000 N   0  0  0  0  0  0  0  0  0  0  0  0
   -4.4225  -13.4194    0.0000 C   0  0  0  0  0  0  0  0  0  0  0  0
   -3.1472  -14.1953    0.0000 C   0  0  0  0  0  0  0  0  0  0  0  0
   -1.8292  -13.4788    0.0000 C   0  0  0  0  0  0  0  0  0  0  0  0
   -0.5458  -14.2629    0.0000 C   0  0  0  0  0  0  0  0  0  0  0  0
    0.7722  -13.5380    0.0000 N   0  0  0  0  0  0  0  0  0  0  0  0
    2.0562  -14.3220    0.0000 C   0  0  0  0  0  0  0  0  0  0  0  0
    2.0219  -15.8228    0.0000 O   0  0  0  0  0  0  0  0  0  0  0  0
    3.3742  -13.5972    0.0000 C   0  0  0  0  0  0  0  0  0  0  0  0
    4.6577  -14.3812    0.0000 N   0  0  0  0  0  0  0  0  0  0  0  0
   -0.5797  -15.7636    0.0000 C   0  0  0  0  0  0  0  0  0  0  0  0
   -1.8975  -16.4802    0.0000 O   0  0  0  0  0  0  0  0  0  0  0  0
    0.7040  -16.5394    0.0000 N   0  0  0  0  0  0  0  0  0  0  0  0
    0.6698  -18.0401    0.0000 O   0  0  0  0  0  0  0  0  0  0  0  0
    5.9757  -13.6563    0.0000 C   0  0  0  0  0  0  0  0  0  0  0  0
    7.2521  -14.4399    0.0000 C   0  0  0  0  0  0  0  0  0  0  0  0
    6.0098  -12.1557    0.0000 O   0  0  0  0  0  0  0  0  0  0  0  0
    3.4080  -12.1047    0.0000 C   0  0  0  0  0  0  0  0  0  0  0  0
    2.1325  -11.3290    0.0000 C   0  0  0  0  0  0  0  0  0  0  0  0
    2.1712   -9.8362    0.0000 C   0  0  0  0  0  0  0  0  0  0  0  0
    0.8971   -9.0609    0.0000 C   0  0  0  0  0  0  0  0  0  0  0  0
   -0.4143   -9.7778    0.0000 C   0  0  0  0  0  0  0  0  0  0  0  0
   -0.4436  -11.2780    0.0000 C   0  0  0  0  0  0  0  0  0  0  0  0
    0.8318  -12.0468    0.0000 C   0  0  0  0  0  0  0  0  0  0  0  0
    7.8849  -15.7954    0.0000 N   0  0  0  0  0  0  0  0  0  0  0  0
    9.3712  -15.6153    0.0000 C   0  0  0  0  0  0  0  0  0  0  0  0
    9.6591  -14.1459    0.0000 C   0  0  0  0  0  0  0  0  0  0  0  0
    8.3507  -13.4183    0.0000 C   0  0  0  0  0  0  0  0  0  0  0  0
  8  9  1  0  0  0  0
 17 18  2  0  0  0  0
  4  5  1  0  0  0  0
 17 19  1  0  0  0  0
  9 10  1  0  0  0  0
 19 20  1  0  0  0  0
  1  3  1  0  0  0  0
 16 21  1  0  0  0  0
 11 10  1  6  0  0  0
 22 21  1  6  0  0  0
  5  6  1  0  0  0  0
 21 23  2  0  0  0  0
 11 12  1  0  0  0  0
 15 24  1  6  0  0  0
 24 25  1  0  0  0  0
 12 13  1  0  0  0  0
 25 26  2  0  0  0  0
  5  7  2  0  0  0  0
 26 27  1  0  0  0  0
 13 14  2  0  0  0  0
 27 28  2  0  0  0  0
  1  4  1  0  0  0  0
 28 29  1  0  0  0  0
 13 15  1  0  0  0  0
 29 30  2  0  0  0  0
 30 25  1  0  0  0  0
 22 31  1  0  0  0  0
  6  8  1  0  0  0  0
 15 16  1  0  0  0  0
  1  2  2  0  0  0  0
 11 17  1  0  0  0  0
 31 32  1  0  0  0  0
 32 33  1  0  0  0  0
 33 34  1  0  0  0  0
 34 22  1  0  0  0  0
M  CHG  2   1   1   3  -1
M  END
> <Value>
3.4391373052725354

> <Relation>
=

> <SourceURI>
mol:CHEMBL605765

$$$$

Generated by Molecular Materials Informatics

 35 36  0  0  0  0  0  0  0  0999 V2000
    3.7507  -13.7565    0.0000 N   0  3  0  0  0  0  0  0  0  0  0  0
    2.4329  -14.4731    0.0000 O   0  0  0  0  0  0  0  0  0  0  0  0
    3.7850  -12.2557    0.0000 O   0  5  0  0  0  0  0  0  0  0  0  0
    5.0344  -14.5324    0.0000 N   0  0  0  0  0  0  0  0  0  0  0  0
    6.3522  -13.8157    0.0000 C   0  0  0  0  0  0  0  0  0  0  0  0
    7.6358  -14.5916    0.0000 N   0  0  0  0  0  0  0  0  0  0  0  0
    6.3865  -12.3151    0.0000 N   0  0  0  0  0  0  0  0  0  0  0  0
    8.9540  -13.8749    0.0000 C   0  0  0  0  0  0  0  0  0  0  0  0
   10.2291  -14.6508    0.0000 C   0  0  0  0  0  0  0  0  0  0  0  0
   11.5471  -13.9341    0.0000 C   0  0  0  0  0  0  0  0  0  0  0  0
   12.8306  -14.7183    0.0000 C   0  0  0  0  0  0  0  0  0  0  0  0
   14.1486  -13.9934    0.0000 N   0  0  0  0  0  0  0  0  0  0  0  0
   15.4324  -14.7775    0.0000 C   0  0  0  0  0  0  0  0  0  0  0  0
   15.3981  -16.2783    0.0000 O   0  0  0  0  0  0  0  0  0  0  0  0
   16.7502  -14.0528    0.0000 C   0  0  0  0  0  0  0  0  0  0  0  0
   18.0339  -14.8367    0.0000 N   0  0  0  0  0  0  0  0  0  0  0  0
   12.7966  -16.2191    0.0000 C   0  0  0  0  0  0  0  0  0  0  0  0
   11.4788  -16.9356    0.0000 O   0  0  0  0  0  0  0  0  0  0  0  0
   14.0803  -16.9948    0.0000 N   0  0  0  0  0  0  0  0  0  0  0  0
   14.0460  -18.4956    0.0000 O   0  0  0  0  0  0  0  0  0  0  0  0
   19.3516  -14.1118    0.0000 C   0  0  0  0  0  0  0  0  0  0  0  0
   20.6280  -14.8953    0.0000 C   0  0  0  0  0  0  0  0  0  0  0  0
   19.3860  -12.6110    0.0000 O   0  0  0  0  0  0  0  0  0  0  0  0
   16.7840  -12.5602    0.0000 C   0  0  0  0  0  0  0  0  0  0  0  0
   15.5086  -11.7846    0.0000 C   0  0  0  0  0  0  0  0  0  0  0  0
   15.5473  -10.2919    0.0000 C   0  0  0  0  0  0  0  0  0  0  0  0
   14.2733   -9.5163    0.0000 C   0  0  0  0  0  0  0  0  0  0  0  0
   12.9620  -10.2332    0.0000 C   0  0  0  0  0  0  0  0  0  0  0  0
   12.9328  -11.7335    0.0000 C   0  0  0  0  0  0  0  0  0  0  0  0
   14.2081  -12.5021    0.0000 C   0  0  0  0  0  0  0  0  0  0  0  0
   21.2609  -16.2507    0.0000 N   0  0  0  0  0  0  0  0  0  0  0  0
   22.7472  -16.0706    0.0000 C   0  0  0  0  0  0  0  0  0  0  0  0
   23.0351  -14.6012    0.0000 C   0  0  0  0  0  0  0  0  0  0  0  0
   21.7269  -13.8738    0.0000 C   0  0  0  0  0  0  0  0  0  0  0  0
   11.6856   -9.4595    0.0000 O   0  0  0  0  0  0  0  0  0  0  0  0
 17 18  2  0  0  0  0
  4  5  1  0  0  0  0
 17 19  1  0  0  0  0
  9 10  1  0  0  0  0
 19 20  1  0  0  0  0
  1  3  1  0  0  0  0
 16 21  1  0  0  0  0
 11 10  1  6  0  0  0
 22 21  1  6  0  0  0
  5  6  1  0  0  0  0
 21 23  2  0  0  0  0
 11 12  1  0  0  0  0
 15 24  1  6  0  0  0
 24 25  1  0  0  0  0
 12 13  1  0  0  0  0
 25 26  2  0  0  0  0
  5  7  2  0  0  0  0
 26 27  1  0  0  0  0
 13 14  2  0  0  0  0
 27 28  2  0  0  0  0
  1  4  1  0  0  0  0
 28 29  1  0  0  0  0
 13 15  1  0  0  0  0
 29 30  2  0  0  0  0
 30 25  1  0  0  0  0
 22 31  1  0  0  0  0
  6  8  1  0  0  0  0
 15 16  1  0  0  0  0
  1  2  2  0  0  0  0
 11 17  1  0  0  0  0
 31 32  1  0  0  0  0
 32 33  1  0  0  0  0
 33 34  1  0  0  0  0
 34 22  1  0  0  0  0
  8  9  1  0  0  0  0
 28 35  1  0  0  0  0
M  CHG  2   1   1   3  -1
M  END
> <Value>
3.6055483191737836

> <Relation>
=

> <SourceURI>
mol:CHEMBL598761

$$$$

Generated by Molecular Materials Informatics

 30 31  0  0  0  0  0  0  0  0999 V2000
   -8.8053  -19.3549    0.0000 N   0  3  0  0  0  0  0  0  0  0  0  0
  -10.1234  -20.0715    0.0000 O   0  0  0  0  0  0  0  0  0  0  0  0
   -8.7711  -17.8539    0.0000 O   0  5  0  0  0  0  0  0  0  0  0  0
   -7.5215  -20.1309    0.0000 N   0  0  0  0  0  0  0  0  0  0  0  0
   -6.2035  -19.4141    0.0000 C   0  0  0  0  0  0  0  0  0  0  0  0
   -4.9197  -20.1899    0.0000 N   0  0  0  0  0  0  0  0  0  0  0  0
   -6.1693  -17.9133    0.0000 N   0  0  0  0  0  0  0  0  0  0  0  0
   -3.6014  -19.4733    0.0000 C   0  0  0  0  0  0  0  0  0  0  0  0
   -2.3259  -20.2492    0.0000 C   0  0  0  0  0  0  0  0  0  0  0  0
   -1.0079  -19.5327    0.0000 C   0  0  0  0  0  0  0  0  0  0  0  0
    0.2757  -20.3167    0.0000 C   0  0  0  0  0  0  0  0  0  0  0  0
    1.5938  -19.5917    0.0000 N   0  0  0  0  0  0  0  0  0  0  0  0
    2.8778  -20.3761    0.0000 C   0  0  0  0  0  0  0  0  0  0  0  0
    2.8436  -21.8768    0.0000 O   0  0  0  0  0  0  0  0  0  0  0  0
    0.2417  -21.8178    0.0000 C   0  0  0  0  0  0  0  0  0  0  0  0
   -1.0763  -22.5343    0.0000 O   0  0  0  0  0  0  0  0  0  0  0  0
    1.5255  -22.5937    0.0000 N   0  0  0  0  0  0  0  0  0  0  0  0
    1.4913  -24.0945    0.0000 O   0  0  0  0  0  0  0  0  0  0  0  0
    4.1880  -19.6604    0.0000 C   0  0  0  0  0  0  0  0  0  0  0  0
    5.3842  -20.5426    0.0000 N   0  0  0  0  0  0  0  0  0  0  0  0
    6.6013  -19.6780    0.0000 C   0  0  0  0  0  0  0  0  0  0  0  0
    6.1549  -18.2530    0.0000 C   0  0  0  0  0  0  0  0  0  0  0  0
    4.6621  -18.2374    0.0000 C   0  0  0  0  0  0  0  0  0  0  0  0
    5.3710  -22.0355    0.0000 C   0  0  0  0  0  0  0  0  0  0  0  0
    6.6579  -22.7928    0.0000 C   0  0  0  0  0  0  0  0  0  0  0  0
    4.0715  -22.7707    0.0000 O   0  0  0  0  0  0  0  0  0  0  0  0
    7.0652  -24.2247    0.0000 N   0  0  0  0  0  0  0  0  0  0  0  0
    8.5571  -24.2855    0.0000 C   0  0  0  0  0  0  0  0  0  0  0  0
    9.0752  -22.8851    0.0000 C   0  0  0  0  0  0  0  0  0  0  0  0
    7.9036  -21.9599    0.0000 C   0  0  0  0  0  0  0  0  0  0  0  0
  6  8  1  0  0  0  0
 15 16  2  0  0  0  0
  1  2  2  0  0  0  0
 15 17  1  0  0  0  0
  8  9  1  0  0  0  0
 17 18  1  0  0  0  0
  4  5  1  0  0  0  0
 19 13  1  6  0  0  0
 19 20  1  0  0  0  0
  9 10  1  0  0  0  0
  1  3  1  0  0  0  0
 11 10  1  6  0  0  0
  5  6  1  0  0  0  0
 20 21  1  0  0  0  0
 21 22  1  0  0  0  0
 22 23  1  0  0  0  0
 23 19  1  0  0  0  0
 11 12  1  0  0  0  0
 20 24  1  0  0  0  0
 25 24  1  6  0  0  0
 12 13  1  0  0  0  0
 24 26  2  0  0  0  0
 25 27  1  0  0  0  0
  5  7  2  0  0  0  0
 13 14  2  0  0  0  0
  1  4  1  0  0  0  0
 11 15  1  0  0  0  0
 27 28  1  0  0  0  0
 28 29  1  0  0  0  0
 29 30  1  0  0  0  0
 30 25  1  0  0  0  0
M  CHG  2   1   1   3  -1
M  END
> <Value>
4.185752404268079

> <Relation>
=

> <SourceURI>
mol:CHEMBL603241

$$$$

Generated by Molecular Materials Informatics

 31 31  0  0  0  0  0  0  0  0999 V2000
   -9.9046   -0.7778    0.0000 N   0  3  0  0  0  0  0  0  0  0  0  0
  -11.2223   -1.4942    0.0000 O   0  0  0  0  0  0  0  0  0  0  0  0
   -9.8704    0.7230    0.0000 O   0  5  0  0  0  0  0  0  0  0  0  0
   -8.6208   -1.5535    0.0000 N   0  0  0  0  0  0  0  0  0  0  0  0
   -7.3030   -0.8369    0.0000 C   0  0  0  0  0  0  0  0  0  0  0  0
   -6.0195   -1.6126    0.0000 N   0  0  0  0  0  0  0  0  0  0  0  0
   -7.2690    0.6635    0.0000 N   0  0  0  0  0  0  0  0  0  0  0  0
   -4.7017   -0.8962    0.0000 C   0  0  0  0  0  0  0  0  0  0  0  0
   -3.4267   -1.6720    0.0000 C   0  0  0  0  0  0  0  0  0  0  0  0
   -2.1087   -0.9552    0.0000 C   0  0  0  0  0  0  0  0  0  0  0  0
   -0.8251   -1.7395    0.0000 C   0  0  0  0  0  0  0  0  0  0  0  0
    0.4926   -1.0145    0.0000 N   0  0  0  0  0  0  0  0  0  0  0  0
    1.7762   -1.7985    0.0000 C   0  0  0  0  0  0  0  0  0  0  0  0
    1.7420   -3.2992    0.0000 O   0  0  0  0  0  0  0  0  0  0  0  0
    3.0940   -1.0740    0.0000 C   0  0  0  0  0  0  0  0  0  0  0  0
    4.3776   -1.8578    0.0000 N   0  0  0  0  0  0  0  0  0  0  0  0
   -0.8593   -3.2401    0.0000 C   0  0  0  0  0  0  0  0  0  0  0  0
   -2.1771   -3.9567    0.0000 O   0  0  0  0  0  0  0  0  0  0  0  0
    0.4243   -4.0158    0.0000 N   0  0  0  0  0  0  0  0  0  0  0  0
    0.3899   -5.5164    0.0000 O   0  0  0  0  0  0  0  0  0  0  0  0
    5.6953   -1.1330    0.0000 C   0  0  0  0  0  0  0  0  0  0  0  0
    6.9705   -1.9173    0.0000 C   0  0  0  0  0  0  0  0  0  0  0  0
    5.7295    0.3676    0.0000 O   0  0  0  0  0  0  0  0  0  0  0  0
    3.1280    0.4187    0.0000 C   0  0  0  0  0  0  0  0  0  0  0  0
    6.9231   -3.4126    0.0000 C   0  0  0  0  0  0  0  0  0  0  0  0
    8.1969   -4.1965    0.0000 C   0  0  0  0  0  0  0  0  0  0  0  0
    9.5153   -3.4839    0.0000 C   0  0  0  0  0  0  0  0  0  0  0  0
    9.5522   -1.9796    0.0000 C   0  0  0  0  0  0  0  0  0  0  0  0
    8.2770   -1.2025    0.0000 C   0  0  0  0  0  0  0  0  0  0  0  0
   10.7880   -4.2641    0.0000 O   0  0  0  0  0  0  0  0  0  0  0  0
   10.7488   -5.7562    0.0000 C   0  0  0  0  0  0  0  0  0  0  0  0
 15 16  1  0  0  0  0
  1  2  2  0  0  0  0
 11 17  1  0  0  0  0
  8  9  1  0  0  0  0
 17 18  2  0  0  0  0
  4  5  1  0  0  0  0
 17 19  1  0  0  0  0
  9 10  1  0  0  0  0
 19 20  1  0  0  0  0
  1  3  1  0  0  0  0
 16 21  1  0  0  0  0
 11 10  1  6  0  0  0
 21 22  1  0  0  0  0
  5  6  1  0  0  0  0
 21 23  2  0  0  0  0
 11 12  1  0  0  0  0
 15 24  1  6  0  0  0
 22 25  2  0  0  0  0
 12 13  1  0  0  0  0
 25 26  1  0  0  0  0
  5  7  2  0  0  0  0
 26 27  2  0  0  0  0
 13 14  2  0  0  0  0
 27 28  1  0  0  0  0
  1  4  1  0  0  0  0
 28 29  2  0  0  0  0
 29 22  1  0  0  0  0
 13 15  1  0  0  0  0
 27 30  1  0  0  0  0
  6  8  1  0  0  0  0
 30 31  1  0  0  0  0
M  CHG  2   1   1   3  -1
M  END
> <Value>
4.787812395596042

> <Relation>
=

> <SourceURI>
mol:CHEMBL597736

$$$$

Generated by Molecular Materials Informatics

 31 31  0  0  0  0  0  0  0  0999 V2000
    2.8394   -1.0000    0.0000 N   0  3  0  0  0  0  0  0  0  0  0  0
    1.5216   -1.7167    0.0000 O   0  0  0  0  0  0  0  0  0  0  0  0
    2.8736    0.5007    0.0000 O   0  5  0  0  0  0  0  0  0  0  0  0
    4.1232   -1.7758    0.0000 N   0  0  0  0  0  0  0  0  0  0  0  0
    5.4408   -1.0592    0.0000 C   0  0  0  0  0  0  0  0  0  0  0  0
    6.7246   -1.8350    0.0000 N   0  0  0  0  0  0  0  0  0  0  0  0
    5.4752    0.4417    0.0000 N   0  0  0  0  0  0  0  0  0  0  0  0
    8.0426   -1.1187    0.0000 C   0  0  0  0  0  0  0  0  0  0  0  0
    9.3179   -1.8941    0.0000 C   0  0  0  0  0  0  0  0  0  0  0  0
   10.6357   -1.1778    0.0000 C   0  0  0  0  0  0  0  0  0  0  0  0
   11.9191   -1.9618    0.0000 C   0  0  0  0  0  0  0  0  0  0  0  0
   13.2371   -1.2370    0.0000 N   0  0  0  0  0  0  0  0  0  0  0  0
   14.5209   -2.0210    0.0000 C   0  0  0  0  0  0  0  0  0  0  0  0
   14.4865   -3.5217    0.0000 O   0  0  0  0  0  0  0  0  0  0  0  0
   15.8387   -1.2961    0.0000 C   0  0  0  0  0  0  0  0  0  0  0  0
   17.1223   -2.0803    0.0000 N   0  0  0  0  0  0  0  0  0  0  0  0
   11.8851   -3.4625    0.0000 C   0  0  0  0  0  0  0  0  0  0  0  0
   10.5673   -4.1790    0.0000 O   0  0  0  0  0  0  0  0  0  0  0  0
   13.1689   -4.2383    0.0000 N   0  0  0  0  0  0  0  0  0  0  0  0
   13.1345   -5.7391    0.0000 O   0  0  0  0  0  0  0  0  0  0  0  0
   18.4402   -1.3552    0.0000 C   0  0  0  0  0  0  0  0  0  0  0  0
   19.7155   -2.1394    0.0000 C   0  0  0  0  0  0  0  0  0  0  0  0
   18.4744    0.1453    0.0000 O   0  0  0  0  0  0  0  0  0  0  0  0
   15.8727    0.1964    0.0000 C   0  0  0  0  0  0  0  0  0  0  0  0
   19.6680   -3.6350    0.0000 C   0  0  0  0  0  0  0  0  0  0  0  0
   20.9418   -4.4190    0.0000 C   0  0  0  0  0  0  0  0  0  0  0  0
   22.2605   -3.7063    0.0000 C   0  0  0  0  0  0  0  0  0  0  0  0
   22.2971   -2.2021    0.0000 C   0  0  0  0  0  0  0  0  0  0  0  0
   21.0220   -1.4249    0.0000 C   0  0  0  0  0  0  0  0  0  0  0  0
   18.3535   -4.3423    0.0000 Cl  0  0  0  0  0  0  0  0  0  0  0  0
   23.5331   -4.4866    0.0000 Cl  0  0  0  0  0  0  0  0  0  0  0  0
 15 16  1  0  0  0  0
  1  2  2  0  0  0  0
 11 17  1  0  0  0  0
  8  9  1  0  0  0  0
 17 18  2  0  0  0  0
  4  5  1  0  0  0  0
 17 19  1  0  0  0  0
  9 10  1  0  0  0  0
 19 20  1  0  0  0  0
  1  3  1  0  0  0  0
 16 21  1  0  0  0  0
 11 10  1  6  0  0  0
 21 22  1  0  0  0  0
  5  6  1  0  0  0  0
 21 23  2  0  0  0  0
 11 12  1  0  0  0  0
 15 24  1  6  0  0  0
 22 25  2  0  0  0  0
 12 13  1  0  0  0  0
 25 26  1  0  0  0  0
  5  7  2  0  0  0  0
 26 27  2  0  0  0  0
 13 14  2  0  0  0  0
 27 28  1  0  0  0  0
  1  4  1  0  0  0  0
 28 29  2  0  0  0  0
 29 22  1  0  0  0  0
 13 15  1  0  0  0  0
 25 30  1  0  0  0  0
  6  8  1  0  0  0  0
 27 31  1  0  0  0  0
M  CHG  2   1   1   3  -1
M  END
> <Value>
4.503070351926785

> <Relation>
=

> <SourceURI>
mol:CHEMBL597935

$$$$

Generated by Molecular Materials Informatics

 32 32  0  0  0  0  0  0  0  0999 V2000
   -9.2160   -6.3119    0.0000 N   0  3  0  0  0  0  0  0  0  0  0  0
  -10.5338   -7.0285    0.0000 O   0  0  0  0  0  0  0  0  0  0  0  0
   -9.1818   -4.8113    0.0000 O   0  5  0  0  0  0  0  0  0  0  0  0
   -7.9323   -7.0876    0.0000 N   0  0  0  0  0  0  0  0  0  0  0  0
   -6.6145   -6.3711    0.0000 C   0  0  0  0  0  0  0  0  0  0  0  0
   -5.3310   -7.1470    0.0000 N   0  0  0  0  0  0  0  0  0  0  0  0
   -6.5805   -4.8705    0.0000 N   0  0  0  0  0  0  0  0  0  0  0  0
   -4.0132   -6.4305    0.0000 C   0  0  0  0  0  0  0  0  0  0  0  0
   -2.7381   -7.2060    0.0000 C   0  0  0  0  0  0  0  0  0  0  0  0
   -1.4201   -6.4895    0.0000 C   0  0  0  0  0  0  0  0  0  0  0  0
   -0.1366   -7.2738    0.0000 C   0  0  0  0  0  0  0  0  0  0  0  0
    1.1812   -6.5489    0.0000 N   0  0  0  0  0  0  0  0  0  0  0  0
    2.4647   -7.3328    0.0000 C   0  0  0  0  0  0  0  0  0  0  0  0
    2.4304   -8.8336    0.0000 O   0  0  0  0  0  0  0  0  0  0  0  0
    3.7825   -6.6080    0.0000 C   0  0  0  0  0  0  0  0  0  0  0  0
    5.0660   -7.3922    0.0000 N   0  0  0  0  0  0  0  0  0  0  0  0
   -0.1709   -8.7742    0.0000 C   0  0  0  0  0  0  0  0  0  0  0  0
   -1.4886   -9.4907    0.0000 O   0  0  0  0  0  0  0  0  0  0  0  0
    1.1127   -9.5501    0.0000 N   0  0  0  0  0  0  0  0  0  0  0  0
    1.0784  -11.0507    0.0000 O   0  0  0  0  0  0  0  0  0  0  0  0
    6.3838   -6.6674    0.0000 C   0  0  0  0  0  0  0  0  0  0  0  0
    7.6591   -7.4513    0.0000 C   0  0  0  0  0  0  0  0  0  0  0  0
    6.4179   -5.1666    0.0000 O   0  0  0  0  0  0  0  0  0  0  0  0
    3.8165   -5.1158    0.0000 C   0  0  0  0  0  0  0  0  0  0  0  0
    7.6115   -8.9468    0.0000 C   0  0  0  0  0  0  0  0  0  0  0  0
    8.8854   -9.7307    0.0000 C   0  0  0  0  0  0  0  0  0  0  0  0
   10.2039   -9.0182    0.0000 C   0  0  0  0  0  0  0  0  0  0  0  0
   10.2406   -7.5140    0.0000 C   0  0  0  0  0  0  0  0  0  0  0  0
    8.9655   -6.7368    0.0000 C   0  0  0  0  0  0  0  0  0  0  0  0
    5.1256   -4.3989    0.0000 C   0  0  0  0  0  0  0  0  0  0  0  0
    2.5408   -4.3400    0.0000 C   0  0  0  0  0  0  0  0  0  0  0  0
    6.2971   -9.6542    0.0000 I   0  0  0  0  0  0  0  0  0  0  0  0
  1  2  2  0  0  0  0
 11 17  1  0  0  0  0
  8  9  1  0  0  0  0
 17 18  2  0  0  0  0
  4  5  1  0  0  0  0
 17 19  1  0  0  0  0
  9 10  1  0  0  0  0
 19 20  1  0  0  0  0
  1  3  1  0  0  0  0
 16 21  1  0  0  0  0
 11 10  1  6  0  0  0
 21 22  1  0  0  0  0
  5  6  1  0  0  0  0
 21 23  2  0  0  0  0
 11 12  1  0  0  0  0
 15 24  1  6  0  0  0
 22 25  2  0  0  0  0
 12 13  1  0  0  0  0
 25 26  1  0  0  0  0
  5  7  2  0  0  0  0
 26 27  2  0  0  0  0
 13 14  2  0  0  0  0
 27 28  1  0  0  0  0
  1  4  1  0  0  0  0
 28 29  2  0  0  0  0
 29 22  1  0  0  0  0
 13 15  1  0  0  0  0
 24 30  1  0  0  0  0
  6  8  1  0  0  0  0
 24 31  1  0  0  0  0
 15 16  1  0  0  0  0
 25 32  1  0  0  0  0
M  CHG  2   1   1   3  -1
M  END
> <Value>
5.173925197299174

> <Relation>
=

> <SourceURI>
mol:CHEMBL597936

$$$$

Generated by Molecular Materials Informatics

 33 33  0  0  0  0  0  0  0  0999 V2000
    3.5848   -6.9667    0.0000 N   0  3  0  0  0  0  0  0  0  0  0  0
    2.2667   -7.6833    0.0000 O   0  0  0  0  0  0  0  0  0  0  0  0
    3.6188   -5.4660    0.0000 O   0  5  0  0  0  0  0  0  0  0  0  0
    4.8683   -7.7426    0.0000 N   0  0  0  0  0  0  0  0  0  0  0  0
    6.1861   -7.0258    0.0000 C   0  0  0  0  0  0  0  0  0  0  0  0
    7.4697   -7.8018    0.0000 N   0  0  0  0  0  0  0  0  0  0  0  0
    6.2204   -5.5253    0.0000 N   0  0  0  0  0  0  0  0  0  0  0  0
    8.7875   -7.0852    0.0000 C   0  0  0  0  0  0  0  0  0  0  0  0
   10.0630   -7.8609    0.0000 C   0  0  0  0  0  0  0  0  0  0  0  0
   11.3807   -7.1443    0.0000 C   0  0  0  0  0  0  0  0  0  0  0  0
   12.6644   -7.9284    0.0000 C   0  0  0  0  0  0  0  0  0  0  0  0
   13.9821   -7.2037    0.0000 N   0  0  0  0  0  0  0  0  0  0  0  0
   15.2658   -7.9876    0.0000 C   0  0  0  0  0  0  0  0  0  0  0  0
   15.2317   -9.4882    0.0000 O   0  0  0  0  0  0  0  0  0  0  0  0
   16.5836   -7.2628    0.0000 C   0  0  0  0  0  0  0  0  0  0  0  0
   17.8674   -8.0469    0.0000 N   0  0  0  0  0  0  0  0  0  0  0  0
   12.6301   -9.4293    0.0000 C   0  0  0  0  0  0  0  0  0  0  0  0
   11.3123  -10.1457    0.0000 O   0  0  0  0  0  0  0  0  0  0  0  0
   13.9139  -10.2048    0.0000 N   0  0  0  0  0  0  0  0  0  0  0  0
   13.8796  -11.7055    0.0000 O   0  0  0  0  0  0  0  0  0  0  0  0
   19.1852   -7.3220    0.0000 C   0  0  0  0  0  0  0  0  0  0  0  0
   20.4603   -8.1062    0.0000 C   0  0  0  0  0  0  0  0  0  0  0  0
   19.2195   -5.8213    0.0000 O   0  0  0  0  0  0  0  0  0  0  0  0
   16.6175   -5.7703    0.0000 C   0  0  0  0  0  0  0  0  0  0  0  0
   20.4129   -9.6018    0.0000 C   0  0  0  0  0  0  0  0  0  0  0  0
   21.6868  -10.3856    0.0000 C   0  0  0  0  0  0  0  0  0  0  0  0
   23.0053   -9.6730    0.0000 C   0  0  0  0  0  0  0  0  0  0  0  0
   23.0421   -8.1687    0.0000 C   0  0  0  0  0  0  0  0  0  0  0  0
   21.7670   -7.3915    0.0000 C   0  0  0  0  0  0  0  0  0  0  0  0
   15.3422   -4.9949    0.0000 C   0  0  0  0  0  0  0  0  0  0  0  0
   19.0984  -10.3092    0.0000 Cl  0  0  0  0  0  0  0  0  0  0  0  0
   15.3759   -3.5026    0.0000 C   0  0  0  0  0  0  0  0  0  0  0  0
   14.0328   -5.7117    0.0000 C   0  0  0  0  0  0  0  0  0  0  0  0
 11 17  1  0  0  0  0
  8  9  1  0  0  0  0
 17 18  2  0  0  0  0
  4  5  1  0  0  0  0
 17 19  1  0  0  0  0
  9 10  1  0  0  0  0
 19 20  1  0  0  0  0
  1  3  1  0  0  0  0
 16 21  1  0  0  0  0
 11 10  1  6  0  0  0
 21 22  1  0  0  0  0
  5  6  1  0  0  0  0
 21 23  2  0  0  0  0
 11 12  1  0  0  0  0
 15 24  1  6  0  0  0
 22 25  2  0  0  0  0
 12 13  1  0  0  0  0
 25 26  1  0  0  0  0
  5  7  2  0  0  0  0
 26 27  2  0  0  0  0
 13 14  2  0  0  0  0
 27 28  1  0  0  0  0
  1  4  1  0  0  0  0
 28 29  2  0  0  0  0
 29 22  1  0  0  0  0
 13 15  1  0  0  0  0
 24 30  1  0  0  0  0
  6  8  1  0  0  0  0
 25 31  1  0  0  0  0
 15 16  1  0  0  0  0
 30 32  1  0  0  0  0
  1  2  2  0  0  0  0
 30 33  1  0  0  0  0
M  CHG  2   1   1   3  -1
M  END
> <Value>
5.318758762624412

> <Relation>
=

> <SourceURI>
mol:CHEMBL598137

$$$$

Generated by Molecular Materials Informatics

 34 34  0  0  0  0  0  0  0  0999 V2000
   -9.5664  -11.6925    0.0000 N   0  3  0  0  0  0  0  0  0  0  0  0
  -10.8844  -12.4092    0.0000 O   0  0  0  0  0  0  0  0  0  0  0  0
   -9.5323  -10.1920    0.0000 O   0  5  0  0  0  0  0  0  0  0  0  0
   -8.2828  -12.4686    0.0000 N   0  0  0  0  0  0  0  0  0  0  0  0
   -6.9652  -11.7519    0.0000 C   0  0  0  0  0  0  0  0  0  0  0  0
   -5.6816  -12.5275    0.0000 N   0  0  0  0  0  0  0  0  0  0  0  0
   -6.9309  -10.2513    0.0000 N   0  0  0  0  0  0  0  0  0  0  0  0
   -4.3638  -11.8110    0.0000 C   0  0  0  0  0  0  0  0  0  0  0  0
   -3.0886  -12.5869    0.0000 C   0  0  0  0  0  0  0  0  0  0  0  0
   -1.7707  -11.8703    0.0000 C   0  0  0  0  0  0  0  0  0  0  0  0
   -0.4872  -12.6544    0.0000 C   0  0  0  0  0  0  0  0  0  0  0  0
    0.8305  -11.9293    0.0000 N   0  0  0  0  0  0  0  0  0  0  0  0
    2.1140  -12.7137    0.0000 C   0  0  0  0  0  0  0  0  0  0  0  0
    2.0799  -14.2141    0.0000 O   0  0  0  0  0  0  0  0  0  0  0  0
    3.4318  -11.9886    0.0000 C   0  0  0  0  0  0  0  0  0  0  0  0
    4.7152  -12.7728    0.0000 N   0  0  0  0  0  0  0  0  0  0  0  0
   -0.5215  -14.1547    0.0000 C   0  0  0  0  0  0  0  0  0  0  0  0
   -1.8392  -14.8714    0.0000 O   0  0  0  0  0  0  0  0  0  0  0  0
    0.7622  -14.9308    0.0000 N   0  0  0  0  0  0  0  0  0  0  0  0
    0.7279  -16.4312    0.0000 O   0  0  0  0  0  0  0  0  0  0  0  0
    6.0332  -12.0478    0.0000 C   0  0  0  0  0  0  0  0  0  0  0  0
    7.3082  -12.8320    0.0000 C   0  0  0  0  0  0  0  0  0  0  0  0
    6.0673  -10.5476    0.0000 O   0  0  0  0  0  0  0  0  0  0  0  0
    3.4658  -10.4966    0.0000 C   0  0  0  0  0  0  0  0  0  0  0  0
    7.2609  -14.3275    0.0000 C   0  0  0  0  0  0  0  0  0  0  0  0
    8.5346  -15.1113    0.0000 C   0  0  0  0  0  0  0  0  0  0  0  0
    9.8530  -14.3990    0.0000 C   0  0  0  0  0  0  0  0  0  0  0  0
    9.8898  -12.8946    0.0000 C   0  0  0  0  0  0  0  0  0  0  0  0
    8.6146  -12.1175    0.0000 C   0  0  0  0  0  0  0  0  0  0  0  0
    2.1904   -9.7208    0.0000 C   0  0  0  0  0  0  0  0  0  0  0  0
    5.9465  -15.0347    0.0000 Cl  0  0  0  0  0  0  0  0  0  0  0  0
    2.2241   -8.2285    0.0000 C   0  0  0  0  0  0  0  0  0  0  0  0
    0.8813  -10.4376    0.0000 C   0  0  0  0  0  0  0  0  0  0  0  0
   11.1255  -15.1790    0.0000 Cl  0  0  0  0  0  0  0  0  0  0  0  0
  8  9  1  0  0  0  0
 17 18  2  0  0  0  0
  4  5  1  0  0  0  0
 17 19  1  0  0  0  0
  9 10  1  0  0  0  0
 19 20  1  0  0  0  0
  1  3  1  0  0  0  0
 16 21  1  0  0  0  0
 11 10  1  6  0  0  0
 21 22  1  0  0  0  0
  5  6  1  0  0  0  0
 21 23  2  0  0  0  0
 11 12  1  0  0  0  0
 15 24  1  6  0  0  0
 22 25  2  0  0  0  0
 12 13  1  0  0  0  0
 25 26  1  0  0  0  0
  5  7  2  0  0  0  0
 26 27  2  0  0  0  0
 13 14  2  0  0  0  0
 27 28  1  0  0  0  0
  1  4  1  0  0  0  0
 28 29  2  0  0  0  0
 29 22  1  0  0  0  0
 13 15  1  0  0  0  0
 24 30  1  0  0  0  0
  6  8  1  0  0  0  0
 25 31  1  0  0  0  0
 15 16  1  0  0  0  0
 30 32  1  0  0  0  0
  1  2  2  0  0  0  0
 30 33  1  0  0  0  0
 11 17  1  0  0  0  0
 27 34  1  0  0  0  0
M  CHG  2   1   1   3  -1
M  END
> <Value>
5.142667503568732

> <Relation>
=

> <SourceURI>
mol:CHEMBL597128

$$$$

Generated by Molecular Materials Informatics

 35 36  0  0  0  0  0  0  0  0999 V2000
    3.1576  -12.5818    0.0000 N   0  3  0  0  0  0  0  0  0  0  0  0
    1.8398  -13.2983    0.0000 O   0  0  0  0  0  0  0  0  0  0  0  0
    3.1919  -11.0811    0.0000 O   0  5  0  0  0  0  0  0  0  0  0  0
    4.4412  -13.3576    0.0000 N   0  0  0  0  0  0  0  0  0  0  0  0
    5.7590  -12.6412    0.0000 C   0  0  0  0  0  0  0  0  0  0  0  0
    7.0424  -13.4167    0.0000 N   0  0  0  0  0  0  0  0  0  0  0  0
    5.7931  -11.1404    0.0000 N   0  0  0  0  0  0  0  0  0  0  0  0
    8.3604  -12.7003    0.0000 C   0  0  0  0  0  0  0  0  0  0  0  0
    9.6356  -13.4761    0.0000 C   0  0  0  0  0  0  0  0  0  0  0  0
   10.9535  -12.7595    0.0000 C   0  0  0  0  0  0  0  0  0  0  0  0
   12.2370  -13.5436    0.0000 C   0  0  0  0  0  0  0  0  0  0  0  0
   13.5547  -12.8186    0.0000 N   0  0  0  0  0  0  0  0  0  0  0  0
   14.8384  -13.6029    0.0000 C   0  0  0  0  0  0  0  0  0  0  0  0
   14.8043  -15.1032    0.0000 O   0  0  0  0  0  0  0  0  0  0  0  0
   16.1563  -12.8779    0.0000 C   0  0  0  0  0  0  0  0  0  0  0  0
   17.4398  -13.6620    0.0000 N   0  0  0  0  0  0  0  0  0  0  0  0
   12.2029  -15.0443    0.0000 C   0  0  0  0  0  0  0  0  0  0  0  0
   10.8851  -15.7607    0.0000 O   0  0  0  0  0  0  0  0  0  0  0  0
   13.4865  -15.8200    0.0000 N   0  0  0  0  0  0  0  0  0  0  0  0
   13.4522  -17.3206    0.0000 O   0  0  0  0  0  0  0  0  0  0  0  0
   18.7577  -12.9371    0.0000 C   0  0  0  0  0  0  0  0  0  0  0  0
   20.0331  -13.7212    0.0000 C   0  0  0  0  0  0  0  0  0  0  0  0
   18.7918  -11.4365    0.0000 O   0  0  0  0  0  0  0  0  0  0  0  0
   16.1902  -11.3855    0.0000 C   0  0  0  0  0  0  0  0  0  0  0  0
   19.9854  -15.2168    0.0000 C   0  0  0  0  0  0  0  0  0  0  0  0
   21.2593  -16.0006    0.0000 C   0  0  0  0  0  0  0  0  0  0  0  0
   22.5779  -15.2883    0.0000 C   0  0  0  0  0  0  0  0  0  0  0  0
   22.6145  -13.7838    0.0000 C   0  0  0  0  0  0  0  0  0  0  0  0
   21.3395  -13.0067    0.0000 C   0  0  0  0  0  0  0  0  0  0  0  0
   14.9148  -10.6100    0.0000 C   0  0  0  0  0  0  0  0  0  0  0  0
   14.9536   -9.1172    0.0000 C   0  0  0  0  0  0  0  0  0  0  0  0
   13.6795   -8.3420    0.0000 C   0  0  0  0  0  0  0  0  0  0  0  0
   12.3684   -9.0588    0.0000 C   0  0  0  0  0  0  0  0  0  0  0  0
   12.3390  -10.5590    0.0000 C   0  0  0  0  0  0  0  0  0  0  0  0
   13.6142  -11.3277    0.0000 C   0  0  0  0  0  0  0  0  0  0  0  0
 17 18  2  0  0  0  0
  4  5  1  0  0  0  0
 17 19  1  0  0  0  0
  9 10  1  0  0  0  0
 19 20  1  0  0  0  0
  1  3  1  0  0  0  0
 16 21  1  0  0  0  0
 11 10  1  6  0  0  0
 21 22  1  0  0  0  0
  5  6  1  0  0  0  0
 21 23  2  0  0  0  0
 11 12  1  0  0  0  0
 15 24  1  6  0  0  0
 22 25  2  0  0  0  0
 12 13  1  0  0  0  0
 25 26  1  0  0  0  0
  5  7  2  0  0  0  0
 26 27  2  0  0  0  0
 13 14  2  0  0  0  0
 27 28  1  0  0  0  0
  1  4  1  0  0  0  0
 28 29  2  0  0  0  0
 29 22  1  0  0  0  0
 13 15  1  0  0  0  0
 24 30  1  0  0  0  0
  6  8  1  0  0  0  0
 30 31  2  0  0  0  0
 15 16  1  0  0  0  0
 31 32  1  0  0  0  0
  1  2  2  0  0  0  0
 32 33  2  0  0  0  0
 11 17  1  0  0  0  0
 33 34  1  0  0  0  0
  8  9  1  0  0  0  0
 34 35  2  0  0  0  0
 35 30  1  0  0  0  0
M  CHG  2   1   1   3  -1
M  END
> <Value>
5.376750709602099

> <Relation>
=

> <SourceURI>
mol:CHEMBL597331

$$$$

Generated by Molecular Materials Informatics

 37 38  0  0  0  0  0  0  0  0999 V2000
   -9.9157  -18.2694    0.0000 N   0  3  0  0  0  0  0  0  0  0  0  0
  -11.2337  -18.9859    0.0000 O   0  0  0  0  0  0  0  0  0  0  0  0
   -9.8814  -16.7684    0.0000 O   0  5  0  0  0  0  0  0  0  0  0  0
   -8.6320  -19.0452    0.0000 N   0  0  0  0  0  0  0  0  0  0  0  0
   -7.3140  -18.3285    0.0000 C   0  0  0  0  0  0  0  0  0  0  0  0
   -6.0303  -19.1043    0.0000 N   0  0  0  0  0  0  0  0  0  0  0  0
   -7.2797  -16.8277    0.0000 N   0  0  0  0  0  0  0  0  0  0  0  0
   -4.7121  -18.3878    0.0000 C   0  0  0  0  0  0  0  0  0  0  0  0
   -3.4367  -19.1636    0.0000 C   0  0  0  0  0  0  0  0  0  0  0  0
   -2.1187  -18.4470    0.0000 C   0  0  0  0  0  0  0  0  0  0  0  0
   -0.8350  -19.2311    0.0000 C   0  0  0  0  0  0  0  0  0  0  0  0
    0.4830  -18.5063    0.0000 N   0  0  0  0  0  0  0  0  0  0  0  0
    1.7669  -19.2903    0.0000 C   0  0  0  0  0  0  0  0  0  0  0  0
    1.7326  -20.7913    0.0000 O   0  0  0  0  0  0  0  0  0  0  0  0
    3.0849  -18.5656    0.0000 C   0  0  0  0  0  0  0  0  0  0  0  0
    4.3686  -19.3496    0.0000 N   0  0  0  0  0  0  0  0  0  0  0  0
   -0.8691  -20.7321    0.0000 C   0  0  0  0  0  0  0  0  0  0  0  0
   -2.1869  -21.4486    0.0000 O   0  0  0  0  0  0  0  0  0  0  0  0
    0.4148  -21.5078    0.0000 N   0  0  0  0  0  0  0  0  0  0  0  0
    0.3805  -23.0088    0.0000 O   0  0  0  0  0  0  0  0  0  0  0  0
    5.6866  -18.6247    0.0000 C   0  0  0  0  0  0  0  0  0  0  0  0
    6.9621  -19.4089    0.0000 C   0  0  0  0  0  0  0  0  0  0  0  0
    5.7209  -17.1237    0.0000 O   0  0  0  0  0  0  0  0  0  0  0  0
    3.1188  -17.0727    0.0000 C   0  0  0  0  0  0  0  0  0  0  0  0
    6.9146  -20.9047    0.0000 C   0  0  0  0  0  0  0  0  0  0  0  0
    8.1885  -21.6886    0.0000 C   0  0  0  0  0  0  0  0  0  0  0  0
    9.5073  -20.9759    0.0000 C   0  0  0  0  0  0  0  0  0  0  0  0
    9.5439  -19.4715    0.0000 C   0  0  0  0  0  0  0  0  0  0  0  0
    8.2687  -18.6940    0.0000 C   0  0  0  0  0  0  0  0  0  0  0  0
    1.8431  -16.2973    0.0000 C   0  0  0  0  0  0  0  0  0  0  0  0
   10.7801  -21.7563    0.0000 Cl  0  0  0  0  0  0  0  0  0  0  0  0
    1.8819  -14.8042    0.0000 C   0  0  0  0  0  0  0  0  0  0  0  0
    0.6078  -14.0288    0.0000 C   0  0  0  0  0  0  0  0  0  0  0  0
   -0.7037  -14.7458    0.0000 C   0  0  0  0  0  0  0  0  0  0  0  0
   -0.7329  -16.2461    0.0000 C   0  0  0  0  0  0  0  0  0  0  0  0
    0.5425  -17.0149    0.0000 C   0  0  0  0  0  0  0  0  0  0  0  0
    5.6001  -21.6121    0.0000 Cl  0  0  0  0  0  0  0  0  0  0  0  0
 17 19  1  0  0  0  0
  9 10  1  0  0  0  0
 19 20  1  0  0  0  0
  1  3  1  0  0  0  0
 16 21  1  0  0  0  0
 11 10  1  6  0  0  0
 21 22  1  0  0  0  0
  5  6  1  0  0  0  0
 21 23  2  0  0  0  0
 11 12  1  0  0  0  0
 15 24  1  6  0  0  0
 22 25  2  0  0  0  0
 12 13  1  0  0  0  0
 25 26  1  0  0  0  0
  5  7  2  0  0  0  0
 26 27  2  0  0  0  0
 13 14  2  0  0  0  0
 27 28  1  0  0  0  0
  1  4  1  0  0  0  0
 28 29  2  0  0  0  0
 29 22  1  0  0  0  0
 13 15  1  0  0  0  0
 24 30  1  0  0  0  0
  6  8  1  0  0  0  0
 27 31  1  0  0  0  0
 15 16  1  0  0  0  0
 30 32  2  0  0  0  0
  1  2  2  0  0  0  0
 32 33  1  0  0  0  0
 11 17  1  0  0  0  0
 33 34  2  0  0  0  0
  8  9  1  0  0  0  0
 34 35  1  0  0  0  0
 17 18  2  0  0  0  0
 35 36  2  0  0  0  0
 36 30  1  0  0  0  0
  4  5  1  0  0  0  0
 25 37  1  0  0  0  0
M  CHG  2   1   1   3  -1
M  END
> <Value>
5.366531544420414

> <Relation>
=

> <SourceURI>
mol:CHEMBL597332

$$$$

Generated by Molecular Materials Informatics

 30 29  0  0  0  0  0  0  0  0999 V2000
   -9.0825   -3.0925    0.0000 N   0  3  0  0  0  0  0  0  0  0  0  0
  -10.3985   -3.8125    0.0000 O   0  0  0  0  0  0  0  0  0  0  0  0
   -9.0482   -1.5929    0.0000 O   0  5  0  0  0  0  0  0  0  0  0  0
   -7.8009   -3.8721    0.0000 N   0  0  0  0  0  0  0  0  0  0  0  0
   -6.4851   -3.1519    0.0000 C   0  0  0  0  0  0  0  0  0  0  0  0
   -5.2037   -3.9316    0.0000 N   0  0  0  0  0  0  0  0  0  0  0  0
   -6.4508   -1.6523    0.0000 N   0  0  0  0  0  0  0  0  0  0  0  0
   -3.8877   -3.2116    0.0000 C   0  0  0  0  0  0  0  0  0  0  0  0
   -2.6065   -3.9912    0.0000 C   0  0  0  0  0  0  0  0  0  0  0  0
   -1.2903   -3.2708    0.0000 C   0  0  0  0  0  0  0  0  0  0  0  0
   -0.0091   -4.0505    0.0000 C   0  0  0  0  0  0  0  0  0  0  0  0
    1.3069   -3.3305    0.0000 N   0  0  0  0  0  0  0  0  0  0  0  0
    2.5883   -4.1101    0.0000 C   0  0  0  0  0  0  0  0  0  0  0  0
    2.5542   -5.6097    0.0000 O   0  0  0  0  0  0  0  0  0  0  0  0
    3.9043   -3.3901    0.0000 C   0  0  0  0  0  0  0  0  0  0  0  0
    5.1858   -4.1696    0.0000 N   0  0  0  0  0  0  0  0  0  0  0  0
   -0.0432   -5.5501    0.0000 C   0  0  0  0  0  0  0  0  0  0  0  0
   -1.3592   -6.2701    0.0000 O   0  0  0  0  0  0  0  0  0  0  0  0
    1.2382   -6.3297    0.0000 N   0  0  0  0  0  0  0  0  0  0  0  0
    1.2038   -7.8293    0.0000 O   0  0  0  0  0  0  0  0  0  0  0  0
    6.5017   -3.4496    0.0000 C   0  0  0  0  0  0  0  0  0  0  0  0
    3.9387   -1.8903    0.0000 C   0  0  0  0  0  0  0  0  0  0  0  0
    5.2545   -1.1703    0.0000 C   0  0  0  0  0  0  0  0  0  0  0  0
    2.6572   -1.1109    0.0000 C   0  0  0  0  0  0  0  0  0  0  0  0
    6.5317   -1.9516    0.0000 O   0  0  0  0  0  0  0  0  0  0  0  0
    7.7899   -4.2296    0.0000 O   0  0  0  0  0  0  0  0  0  0  0  0
    9.1150   -3.5119    0.0000 C   0  0  0  0  0  0  0  0  0  0  0  0
   10.3951   -4.2936    0.0000 C   0  0  0  0  0  0  0  0  0  0  0  0
    9.1515   -2.0209    0.0000 C   0  0  0  0  0  0  0  0  0  0  0  0
   10.4220   -2.7790    0.0000 C   0  0  0  0  0  0  0  0  0  0  0  0
  6  8  1  0  0  0  0
 15 16  1  0  0  0  0
  1  2  2  0  0  0  0
 11 17  1  0  0  0  0
  8  9  1  0  0  0  0
 17 18  2  0  0  0  0
  4  5  1  0  0  0  0
 17 19  1  0  0  0  0
  9 10  1  0  0  0  0
 19 20  1  0  0  0  0
  1  3  1  0  0  0  0
 16 21  1  0  0  0  0
 11 10  1  6  0  0  0
 15 22  1  6  0  0  0
  5  6  1  0  0  0  0
 22 23  1  0  0  0  0
 11 12  1  0  0  0  0
 22 24  1  0  0  0  0
 21 25  2  0  0  0  0
 12 13  1  0  0  0  0
 21 26  1  0  0  0  0
  5  7  2  0  0  0  0
 26 27  1  0  0  0  0
 13 14  2  0  0  0  0
 27 28  1  0  0  0  0
  1  4  1  0  0  0  0
 27 29  1  0  0  0  0
 13 15  1  0  0  0  0
 27 30  1  0  0  0  0
M  CHG  2   1   1   3  -1
M  END
> <Value>
3.6970200632517507

> <Relation>
=

> <SourceURI>
mol:CHEMBL591300

$$$$

Generated by Molecular Materials Informatics

 31 30  0  0  0  0  0  0  0  0999 V2000
    3.8289   -3.4299    0.0000 N   0  3  0  0  0  0  0  0  0  0  0  0
    2.5129   -4.1499    0.0000 O   0  0  0  0  0  0  0  0  0  0  0  0
    3.8632   -1.9303    0.0000 O   0  5  0  0  0  0  0  0  0  0  0  0
    5.1103   -4.2095    0.0000 N   0  0  0  0  0  0  0  0  0  0  0  0
    6.4261   -3.4893    0.0000 C   0  0  0  0  0  0  0  0  0  0  0  0
    7.7075   -4.2690    0.0000 N   0  0  0  0  0  0  0  0  0  0  0  0
    6.4606   -1.9897    0.0000 N   0  0  0  0  0  0  0  0  0  0  0  0
    9.0235   -3.5490    0.0000 C   0  0  0  0  0  0  0  0  0  0  0  0
   10.3049   -4.3286    0.0000 C   0  0  0  0  0  0  0  0  0  0  0  0
   11.6209   -3.6083    0.0000 C   0  0  0  0  0  0  0  0  0  0  0  0
   12.9023   -4.3879    0.0000 C   0  0  0  0  0  0  0  0  0  0  0  0
   14.2183   -3.6679    0.0000 N   0  0  0  0  0  0  0  0  0  0  0  0
   15.4997   -4.4475    0.0000 C   0  0  0  0  0  0  0  0  0  0  0  0
   15.4654   -5.9471    0.0000 O   0  0  0  0  0  0  0  0  0  0  0  0
   16.8157   -3.7275    0.0000 C   0  0  0  0  0  0  0  0  0  0  0  0
   18.0970   -4.5070    0.0000 N   0  0  0  0  0  0  0  0  0  0  0  0
   12.8682   -5.8875    0.0000 C   0  0  0  0  0  0  0  0  0  0  0  0
   11.5522   -6.6075    0.0000 O   0  0  0  0  0  0  0  0  0  0  0  0
   14.1494   -6.6671    0.0000 N   0  0  0  0  0  0  0  0  0  0  0  0
   14.1150   -8.1667    0.0000 O   0  0  0  0  0  0  0  0  0  0  0  0
   19.4129   -3.7870    0.0000 C   0  0  0  0  0  0  0  0  0  0  0  0
   16.8501   -2.2277    0.0000 C   0  0  0  0  0  0  0  0  0  0  0  0
   19.4429   -2.2890    0.0000 O   0  0  0  0  0  0  0  0  0  0  0  0
   20.7013   -4.5670    0.0000 O   0  0  0  0  0  0  0  0  0  0  0  0
   22.0261   -3.8493    0.0000 C   0  0  0  0  0  0  0  0  0  0  0  0
   23.3063   -4.6310    0.0000 C   0  0  0  0  0  0  0  0  0  0  0  0
   22.0627   -2.3583    0.0000 C   0  0  0  0  0  0  0  0  0  0  0  0
   23.3334   -3.1164    0.0000 C   0  0  0  0  0  0  0  0  0  0  0  0
   15.5685   -1.4483    0.0000 C   0  0  0  0  0  0  0  0  0  0  0  0
   15.6028    0.0513    0.0000 C   0  0  0  0  0  0  0  0  0  0  0  0
   14.2527   -2.1683    0.0000 C   0  0  0  0  0  0  0  0  0  0  0  0
 15 16  1  0  0  0  0
  1  2  2  0  0  0  0
 11 17  1  0  0  0  0
  8  9  1  0  0  0  0
 17 18  2  0  0  0  0
  4  5  1  0  0  0  0
 17 19  1  0  0  0  0
  9 10  1  0  0  0  0
 19 20  1  0  0  0  0
  1  3  1  0  0  0  0
 16 21  1  0  0  0  0
 11 10  1  6  0  0  0
 15 22  1  6  0  0  0
  5  6  1  0  0  0  0
 21 23  2  0  0  0  0
 11 12  1  0  0  0  0
 21 24  1  0  0  0  0
 24 25  1  0  0  0  0
 12 13  1  0  0  0  0
 25 26  1  0  0  0  0
  5  7  2  0  0  0  0
 25 27  1  0  0  0  0
 13 14  2  0  0  0  0
 25 28  1  0  0  0  0
  1  4  1  0  0  0  0
 22 29  1  0  0  0  0
 13 15  1  0  0  0  0
 29 30  1  0  0  0  0
  6  8  1  0  0  0  0
 29 31  1  0  0  0  0
M  CHG  2   1   1   3  -1
M  END
> <Value>
3.4761235243618684

> <Relation>
=

> <SourceURI>
mol:CHEMBL590393

$$$$

Generated by Molecular Materials Informatics

 31 30  0  0  0  0  0  0  0  0999 V2000
   -5.4334   -3.7596    0.0000 N   0  3  0  0  0  0  0  0  0  0  0  0
   -6.7492   -4.4795    0.0000 O   0  0  0  0  0  0  0  0  0  0  0  0
   -5.3991   -2.2599    0.0000 O   0  5  0  0  0  0  0  0  0  0  0  0
   -4.1520   -4.5392    0.0000 N   0  0  0  0  0  0  0  0  0  0  0  0
   -2.8362   -3.8192    0.0000 C   0  0  0  0  0  0  0  0  0  0  0  0
   -1.5545   -4.5986    0.0000 N   0  0  0  0  0  0  0  0  0  0  0  0
   -2.8016   -2.3196    0.0000 N   0  0  0  0  0  0  0  0  0  0  0  0
   -0.2387   -3.8786    0.0000 C   0  0  0  0  0  0  0  0  0  0  0  0
    1.0429   -4.6581    0.0000 C   0  0  0  0  0  0  0  0  0  0  0  0
    2.3587   -3.9381    0.0000 C   0  0  0  0  0  0  0  0  0  0  0  0
    3.6403   -4.7177    0.0000 C   0  0  0  0  0  0  0  0  0  0  0  0
    4.9561   -3.9976    0.0000 N   0  0  0  0  0  0  0  0  0  0  0  0
    6.2376   -4.7772    0.0000 C   0  0  0  0  0  0  0  0  0  0  0  0
    6.2032   -6.2768    0.0000 O   0  0  0  0  0  0  0  0  0  0  0  0
    7.5534   -4.0572    0.0000 C   0  0  0  0  0  0  0  0  0  0  0  0
    8.8350   -4.8368    0.0000 N   0  0  0  0  0  0  0  0  0  0  0  0
    3.6058   -6.2173    0.0000 C   0  0  0  0  0  0  0  0  0  0  0  0
    2.2901   -6.9373    0.0000 O   0  0  0  0  0  0  0  0  0  0  0  0
    4.8874   -6.9968    0.0000 N   0  0  0  0  0  0  0  0  0  0  0  0
    4.8530   -8.4964    0.0000 O   0  0  0  0  0  0  0  0  0  0  0  0
   10.1508   -4.1166    0.0000 C   0  0  0  0  0  0  0  0  0  0  0  0
    7.5879   -2.5576    0.0000 C   0  0  0  0  0  0  0  0  0  0  0  0
   10.1808   -2.6188    0.0000 O   0  0  0  0  0  0  0  0  0  0  0  0
   11.4390   -4.8966    0.0000 O   0  0  0  0  0  0  0  0  0  0  0  0
   12.7642   -4.1790    0.0000 C   0  0  0  0  0  0  0  0  0  0  0  0
   14.0442   -4.9606    0.0000 C   0  0  0  0  0  0  0  0  0  0  0  0
   12.8008   -2.6879    0.0000 C   0  0  0  0  0  0  0  0  0  0  0  0
   14.0711   -3.4463    0.0000 C   0  0  0  0  0  0  0  0  0  0  0  0
    6.3063   -1.7779    0.0000 C   0  0  0  0  0  0  0  0  0  0  0  0
    4.9905   -2.4979    0.0000 S   0  0  0  0  0  0  0  0  0  0  0  0
    3.7090   -1.7185    0.0000 C   0  0  0  0  0  0  0  0  0  0  0  0
  1  2  2  0  0  0  0
 11 17  1  0  0  0  0
  8  9  1  0  0  0  0
 17 18  2  0  0  0  0
  4  5  1  0  0  0  0
 17 19  1  0  0  0  0
  9 10  1  0  0  0  0
 19 20  1  0  0  0  0
  1  3  1  0  0  0  0
 16 21  1  0  0  0  0
 11 10  1  6  0  0  0
 15 22  1  6  0  0  0
  5  6  1  0  0  0  0
 21 23  2  0  0  0  0
 11 12  1  0  0  0  0
 21 24  1  0  0  0  0
 24 25  1  0  0  0  0
 12 13  1  0  0  0  0
 25 26  1  0  0  0  0
  5  7  2  0  0  0  0
 25 27  1  0  0  0  0
 13 14  2  0  0  0  0
 25 28  1  0  0  0  0
  1  4  1  0  0  0  0
 22 29  1  0  0  0  0
 13 15  1  0  0  0  0
 29 30  1  0  0  0  0
  6  8  1  0  0  0  0
 15 16  1  0  0  0  0
 30 31  1  0  0  0  0
M  CHG  2   1   1   3  -1
M  END
> <Value>
3.8790971823854727

> <Relation>
=

> <SourceURI>
mol:CHEMBL590394

$$$$

Generated by Molecular Materials Informatics

 23 22  0  0  0  0  0  0  0  0999 V2000
    6.6048   -7.5613    0.0000 N   0  3  0  0  0  0  0  0  0  0  0  0
    5.2888   -8.2813    0.0000 O   0  0  0  0  0  0  0  0  0  0  0  0
    6.6390   -6.0617    0.0000 O   0  5  0  0  0  0  0  0  0  0  0  0
    7.8862   -8.3409    0.0000 N   0  0  0  0  0  0  0  0  0  0  0  0
    9.2022   -7.6206    0.0000 C   0  0  0  0  0  0  0  0  0  0  0  0
   10.4837   -8.4002    0.0000 N   0  0  0  0  0  0  0  0  0  0  0  0
    9.2364   -6.1212    0.0000 N   0  0  0  0  0  0  0  0  0  0  0  0
   11.7996   -7.6802    0.0000 C   0  0  0  0  0  0  0  0  0  0  0  0
   13.0809   -8.4599    0.0000 C   0  0  0  0  0  0  0  0  0  0  0  0
   14.3967   -7.7397    0.0000 C   0  0  0  0  0  0  0  0  0  0  0  0
   15.6783   -8.5193    0.0000 C   0  0  0  0  0  0  0  0  0  0  0  0
   16.9941   -7.7993    0.0000 N   0  0  0  0  0  0  0  0  0  0  0  0
   18.2757   -8.5789    0.0000 C   0  0  0  0  0  0  0  0  0  0  0  0
   18.2414  -10.0784    0.0000 O   0  0  0  0  0  0  0  0  0  0  0  0
   19.5915   -7.8590    0.0000 C   0  0  0  0  0  0  0  0  0  0  0  0
   20.8732   -8.6382    0.0000 N   0  0  0  0  0  0  0  0  0  0  0  0
   15.6440  -10.0189    0.0000 C   0  0  0  0  0  0  0  0  0  0  0  0
   14.3282  -10.7389    0.0000 O   0  0  0  0  0  0  0  0  0  0  0  0
   16.9256  -10.7984    0.0000 N   0  0  0  0  0  0  0  0  0  0  0  0
   16.8910  -12.2980    0.0000 O   0  0  0  0  0  0  0  0  0  0  0  0
   19.6259   -6.3592    0.0000 C   0  0  0  0  0  0  0  0  0  0  0  0
   20.9419   -5.6392    0.0000 C   0  0  0  0  0  0  0  0  0  0  0  0
   18.3445   -5.5797    0.0000 C   0  0  0  0  0  0  0  0  0  0  0  0
 11 12  1  0  0  0  0
 12 13  1  0  0  0  0
  5  7  2  0  0  0  0
 13 14  2  0  0  0  0
  1  4  1  0  0  0  0
 13 15  1  0  0  0  0
  6  8  1  0  0  0  0
 15 16  1  0  0  0  0
  1  2  2  0  0  0  0
 11 17  1  0  0  0  0
  8  9  1  0  0  0  0
 17 18  2  0  0  0  0
  4  5  1  0  0  0  0
 17 19  1  0  0  0  0
  9 10  1  0  0  0  0
 19 20  1  0  0  0  0
  1  3  1  0  0  0  0
 15 21  1  6  0  0  0
 11 10  1  6  0  0  0
 21 22  1  0  0  0  0
  5  6  1  0  0  0  0
 21 23  1  0  0  0  0
M  CHG  2   1   1   3  -1
M  END
> <Value>
3.5528419686577806

> <Relation>
=

> <SourceURI>
mol:CHEMBL600067

$$$$

Generated by Molecular Materials Informatics

 24 23  0  0  0  0  0  0  0  0999 V2000
   -6.8547  -12.9174    0.0000 N   0  3  0  0  0  0  0  0  0  0  0  0
   -8.1706  -13.6373    0.0000 O   0  0  0  0  0  0  0  0  0  0  0  0
   -6.8205  -11.4179    0.0000 O   0  5  0  0  0  0  0  0  0  0  0  0
   -5.5734  -13.6970    0.0000 N   0  0  0  0  0  0  0  0  0  0  0  0
   -4.2574  -12.9768    0.0000 C   0  0  0  0  0  0  0  0  0  0  0  0
   -2.9760  -13.7564    0.0000 N   0  0  0  0  0  0  0  0  0  0  0  0
   -4.2233  -11.4772    0.0000 N   0  0  0  0  0  0  0  0  0  0  0  0
   -1.6600  -13.0364    0.0000 C   0  0  0  0  0  0  0  0  0  0  0  0
   -0.3786  -13.8161    0.0000 C   0  0  0  0  0  0  0  0  0  0  0  0
    0.9372  -13.0959    0.0000 C   0  0  0  0  0  0  0  0  0  0  0  0
    2.2188  -13.8753    0.0000 C   0  0  0  0  0  0  0  0  0  0  0  0
    3.5344  -13.1553    0.0000 N   0  0  0  0  0  0  0  0  0  0  0  0
    4.8160  -13.9350    0.0000 C   0  0  0  0  0  0  0  0  0  0  0  0
    4.7817  -15.4346    0.0000 O   0  0  0  0  0  0  0  0  0  0  0  0
    6.1318  -13.2150    0.0000 C   0  0  0  0  0  0  0  0  0  0  0  0
    7.4134  -13.9944    0.0000 N   0  0  0  0  0  0  0  0  0  0  0  0
    2.1843  -15.3749    0.0000 C   0  0  0  0  0  0  0  0  0  0  0  0
    0.8685  -16.0949    0.0000 O   0  0  0  0  0  0  0  0  0  0  0  0
    3.4659  -16.1546    0.0000 N   0  0  0  0  0  0  0  0  0  0  0  0
    3.4315  -17.6542    0.0000 O   0  0  0  0  0  0  0  0  0  0  0  0
    6.1662  -11.7152    0.0000 C   0  0  0  0  0  0  0  0  0  0  0  0
    4.8849  -10.9359    0.0000 C   0  0  0  0  0  0  0  0  0  0  0  0
    4.9191   -9.4363    0.0000 C   0  0  0  0  0  0  0  0  0  0  0  0
    3.5690  -11.6559    0.0000 C   0  0  0  0  0  0  0  0  0  0  0  0
 12 13  1  0  0  0  0
  5  7  2  0  0  0  0
 13 14  2  0  0  0  0
  1  4  1  0  0  0  0
 13 15  1  0  0  0  0
  6  8  1  0  0  0  0
 15 16  1  0  0  0  0
  1  2  2  0  0  0  0
 11 17  1  0  0  0  0
  8  9  1  0  0  0  0
 17 18  2  0  0  0  0
  4  5  1  0  0  0  0
 17 19  1  0  0  0  0
  9 10  1  0  0  0  0
 19 20  1  0  0  0  0
  1  3  1  0  0  0  0
 15 21  1  6  0  0  0
 11 10  1  6  0  0  0
 21 22  1  0  0  0  0
  5  6  1  0  0  0  0
 22 23  1  0  0  0  0
 11 12  1  0  0  0  0
 22 24  1  0  0  0  0
M  CHG  2   1   1   3  -1
M  END
> <Value>
3.4198736745884175

> <Relation>
=

> <SourceURI>
mol:CHEMBL592538

$$$$

Generated by Molecular Materials Informatics

 25 24  0  0  0  0  0  0  0  0999 V2000
    4.2047  -12.4788    0.0000 N   0  3  0  0  0  0  0  0  0  0  0  0
    2.8889  -13.1988    0.0000 O   0  0  0  0  0  0  0  0  0  0  0  0
    4.2391  -10.9792    0.0000 O   0  5  0  0  0  0  0  0  0  0  0  0
    5.4863  -13.2584    0.0000 N   0  0  0  0  0  0  0  0  0  0  0  0
    6.8021  -12.5384    0.0000 C   0  0  0  0  0  0  0  0  0  0  0  0
    8.0837  -13.3178    0.0000 N   0  0  0  0  0  0  0  0  0  0  0  0
    6.8365  -11.0388    0.0000 N   0  0  0  0  0  0  0  0  0  0  0  0
    9.3995  -12.5979    0.0000 C   0  0  0  0  0  0  0  0  0  0  0  0
   10.6810  -13.3773    0.0000 C   0  0  0  0  0  0  0  0  0  0  0  0
   11.9968  -12.6573    0.0000 C   0  0  0  0  0  0  0  0  0  0  0  0
   13.2784  -13.4369    0.0000 C   0  0  0  0  0  0  0  0  0  0  0  0
   14.5942  -12.7168    0.0000 N   0  0  0  0  0  0  0  0  0  0  0  0
   15.8758  -13.4964    0.0000 C   0  0  0  0  0  0  0  0  0  0  0  0
   15.8414  -14.9960    0.0000 O   0  0  0  0  0  0  0  0  0  0  0  0
   17.1916  -12.7764    0.0000 C   0  0  0  0  0  0  0  0  0  0  0  0
   18.4732  -13.5560    0.0000 N   0  0  0  0  0  0  0  0  0  0  0  0
   13.2440  -14.9365    0.0000 C   0  0  0  0  0  0  0  0  0  0  0  0
   11.9282  -15.6565    0.0000 O   0  0  0  0  0  0  0  0  0  0  0  0
   14.5256  -15.7160    0.0000 N   0  0  0  0  0  0  0  0  0  0  0  0
   14.4912  -17.2156    0.0000 O   0  0  0  0  0  0  0  0  0  0  0  0
   17.2259  -11.2768    0.0000 C   0  0  0  0  0  0  0  0  0  0  0  0
   15.9443  -10.4972    0.0000 C   0  0  0  0  0  0  0  0  0  0  0  0
   14.6285  -11.2172    0.0000 C   0  0  0  0  0  0  0  0  0  0  0  0
   13.3469  -10.4377    0.0000 S   0  0  0  0  0  0  0  0  0  0  0  0
   12.0313  -11.1579    0.0000 C   0  0  0  0  0  0  0  0  0  0  0  0
 12 13  1  0  0  0  0
  5  7  2  0  0  0  0
 13 14  2  0  0  0  0
  1  4  1  0  0  0  0
 13 15  1  0  0  0  0
  6  8  1  0  0  0  0
 15 16  1  0  0  0  0
  1  2  2  0  0  0  0
 11 17  1  0  0  0  0
  8  9  1  0  0  0  0
 17 18  2  0  0  0  0
  4  5  1  0  0  0  0
 17 19  1  0  0  0  0
  9 10  1  0  0  0  0
 19 20  1  0  0  0  0
  1  3  1  0  0  0  0
 15 21  1  6  0  0  0
 11 10  1  6  0  0  0
 21 22  1  0  0  0  0
  5  6  1  0  0  0  0
 22 23  1  0  0  0  0
 11 12  1  0  0  0  0
 23 24  1  0  0  0  0
 24 25  1  0  0  0  0
M  CHG  2   1   1   3  -1
M  END
> <Value>
3.61475131759678

> <Relation>
=

> <SourceURI>
mol:CHEMBL592539

$$$$

Generated by Molecular Materials Informatics

 42 43  0  0  0  0  0  0  0  0999 V2000
    4.0035  -15.0914    0.0000 N   0  3  0  0  0  0  0  0  0  0  0  0
    2.6855  -15.8078    0.0000 O   0  0  0  0  0  0  0  0  0  0  0  0
    4.0378  -13.5903    0.0000 O   0  5  0  0  0  0  0  0  0  0  0  0
    5.2871  -15.8671    0.0000 N   0  0  0  0  0  0  0  0  0  0  0  0
    6.6051  -15.1505    0.0000 C   0  0  0  0  0  0  0  0  0  0  0  0
    7.8889  -15.9263    0.0000 N   0  0  0  0  0  0  0  0  0  0  0  0
    6.6394  -13.6497    0.0000 N   0  0  0  0  0  0  0  0  0  0  0  0
    9.2070  -15.2097    0.0000 C   0  0  0  0  0  0  0  0  0  0  0  0
   10.4823  -15.9856    0.0000 C   0  0  0  0  0  0  0  0  0  0  0  0
   11.8005  -15.2690    0.0000 C   0  0  0  0  0  0  0  0  0  0  0  0
   13.0841  -16.0531    0.0000 C   0  0  0  0  0  0  0  0  0  0  0  0
   14.4021  -15.3282    0.0000 N   0  0  0  0  0  0  0  0  0  0  0  0
   15.6861  -16.1122    0.0000 C   0  0  0  0  0  0  0  0  0  0  0  0
   15.6518  -17.6131    0.0000 O   0  0  0  0  0  0  0  0  0  0  0  0
   17.0038  -15.3875    0.0000 C   0  0  0  0  0  0  0  0  0  0  0  0
   18.2877  -16.1714    0.0000 N   0  0  0  0  0  0  0  0  0  0  0  0
   13.0500  -17.5539    0.0000 C   0  0  0  0  0  0  0  0  0  0  0  0
   11.7321  -18.2705    0.0000 O   0  0  0  0  0  0  0  0  0  0  0  0
   14.3338  -18.3299    0.0000 N   0  0  0  0  0  0  0  0  0  0  0  0
   14.2995  -19.8305    0.0000 O   0  0  0  0  0  0  0  0  0  0  0  0
   19.6058  -15.4465    0.0000 C   0  0  0  0  0  0  0  0  0  0  0  0
   20.8822  -16.2302    0.0000 C   0  0  0  0  0  0  0  0  0  0  0  0
   19.6399  -13.9458    0.0000 O   0  0  0  0  0  0  0  0  0  0  0  0
   17.0378  -13.8948    0.0000 C   0  0  0  0  0  0  0  0  0  0  0  0
   15.7623  -13.1192    0.0000 C   0  0  0  0  0  0  0  0  0  0  0  0
   15.8011  -11.6262    0.0000 C   0  0  0  0  0  0  0  0  0  0  0  0
   14.5269  -10.8508    0.0000 C   0  0  0  0  0  0  0  0  0  0  0  0
   13.2155  -11.5678    0.0000 C   0  0  0  0  0  0  0  0  0  0  0  0
   13.1861  -13.0683    0.0000 C   0  0  0  0  0  0  0  0  0  0  0  0
   14.4616  -13.8369    0.0000 C   0  0  0  0  0  0  0  0  0  0  0  0
   21.5151  -17.5855    0.0000 N   0  0  0  0  0  0  0  0  0  0  0  0
   23.0013  -17.4057    0.0000 C   0  0  0  0  0  0  0  0  0  0  0  0
   23.2893  -15.9362    0.0000 C   0  0  0  0  0  0  0  0  0  0  0  0
   21.9811  -15.2086    0.0000 C   0  0  0  0  0  0  0  0  0  0  0  0
   20.7904  -18.8911    0.0000 C   0  0  0  0  0  0  0  0  0  0  0  0
   21.5589  -20.1612    0.0000 O   0  0  0  0  0  0  0  0  0  0  0  0
   19.2891  -18.9133    0.0000 O   0  0  0  0  0  0  0  0  0  0  0  0
   18.5557  -20.2214    0.0000 C   0  0  0  0  0  0  0  0  0  0  0  0
   17.0630  -20.2441    0.0000 C   0  0  0  0  0  0  0  0  0  0  0  0
   19.3173  -21.4954    0.0000 C   0  0  0  0  0  0  0  0  0  0  0  0
   17.8453  -21.5326    0.0000 C   0  0  0  0  0  0  0  0  0  0  0  0
   11.9389  -10.7937    0.0000 O   0  0  0  0  0  0  0  0  0  0  0  0
 11 10  1  6  0  0  0
 22 21  1  6  0  0  0
  5  6  1  0  0  0  0
 21 23  2  0  0  0  0
 11 12  1  0  0  0  0
 15 24  1  6  0  0  0
 24 25  1  0  0  0  0
 12 13  1  0  0  0  0
 25 26  2  0  0  0  0
  5  7  2  0  0  0  0
 26 27  1  0  0  0  0
 13 14  2  0  0  0  0
 27 28  2  0  0  0  0
  1  4  1  0  0  0  0
 28 29  1  0  0  0  0
 13 15  1  0  0  0  0
 29 30  2  0  0  0  0
 30 25  1  0  0  0  0
 22 31  1  0  0  0  0
  6  8  1  0  0  0  0
 15 16  1  0  0  0  0
  1  2  2  0  0  0  0
 11 17  1  0  0  0  0
 31 32  1  0  0  0  0
 32 33  1  0  0  0  0
 33 34  1  0  0  0  0
 34 22  1  0  0  0  0
  8  9  1  0  0  0  0
 31 35  1  0  0  0  0
 17 18  2  0  0  0  0
 35 36  2  0  0  0  0
  4  5  1  0  0  0  0
 35 37  1  0  0  0  0
 17 19  1  0  0  0  0
 37 38  1  0  0  0  0
  9 10  1  0  0  0  0
 38 39  1  0  0  0  0
 19 20  1  0  0  0  0
 38 40  1  0  0  0  0
  1  3  1  0  0  0  0
 38 41  1  0  0  0  0
 16 21  1  0  0  0  0
 28 42  1  0  0  0  0
M  CHG  2   1   1   3  -1
M  END
> <Value>
3.36021478701318

> <Relation>
=

> <SourceURI>
mol:CHEMBL591674

$$$$

Generated by Molecular Materials Informatics

 27 29  0  0  0  0  0  0  0  0999 V2000
    5.5507   -0.9660    0.0000 C   0  0  0  0  0  0  0  0  0  0  0  0
    6.9977   -0.5721    0.0000 O   0  0  0  0  0  0  0  0  0  0  0  0
    7.0703    0.9257    0.0000 C   0  0  0  0  0  0  0  0  0  0  0  0
    5.6680    1.4576    0.0000 C   0  0  0  0  0  0  0  0  0  0  0  0
    4.7291    0.2884    0.0000 O   0  0  0  0  0  0  0  0  0  0  0  0
    1.5175   -1.4455    0.0000 C   0  0  0  0  0  0  0  0  0  0  0  0
    1.5155   -2.9497    0.0000 C   0  0  0  0  0  0  0  0  0  0  0  0
    2.8150   -3.7004    0.0000 C   0  0  0  0  0  0  0  0  0  0  0  0
    2.8117   -0.6949    0.0000 C   0  0  0  0  0  0  0  0  0  0  0  0
    4.1124   -1.4389    0.0000 C   0  0  0  0  0  0  0  0  0  0  0  0
    4.1129   -2.9497    0.0000 C   0  0  0  0  0  0  0  0  0  0  0  0
    5.5501   -3.4163    0.0000 N   0  0  0  0  0  0  0  0  0  0  0  0
    6.4380   -2.1936    0.0000 C   0  0  0  0  0  0  0  0  0  0  0  0
    7.9380   -2.1953    0.0000 O   0  0  0  0  0  0  0  0  0  0  0  0
    6.0140   -4.8427    0.0000 C   0  0  0  0  0  0  0  0  0  0  0  0
    7.4813   -5.1542    0.0000 C   0  0  0  0  0  0  0  0  0  0  0  0
    7.9452   -6.5807    0.0000 N   0  0  0  0  0  0  0  0  0  0  0  0
    8.4846   -4.0393    0.0000 O   0  0  0  0  0  0  0  0  0  0  0  0
    0.2183   -0.6957    0.0000 Br  0  0  0  0  0  0  0  0  0  0  0  0
    9.4125   -6.8922    0.0000 C   0  0  0  0  0  0  0  0  0  0  0  0
    9.8763   -8.3186    0.0000 C   0  0  0  0  0  0  0  0  0  0  0  0
   11.3437   -8.6301    0.0000 N   0  0  0  0  0  0  0  0  0  0  0  0
   11.8075  -10.0565    0.0000 O   0  0  0  0  0  0  0  0  0  0  0  0
    8.8730   -9.4335    0.0000 O   0  0  0  0  0  0  0  0  0  0  0  0
   10.4158   -5.7771    0.0000 C   0  0  0  0  0  0  0  0  0  0  0  0
   11.8831   -6.0886    0.0000 C   0  0  0  0  0  0  0  0  0  0  0  0
    9.9519   -4.3508    0.0000 C   0  0  0  0  0  0  0  0  0  0  0  0
  1  2  1  0  0  0  0
  2  3  1  0  0  0  0
  3  4  1  0  0  0  0
  4  5  1  0  0  0  0
  5  1  1  0  0  0  0
  6  7  2  0  0  0  0
  7  8  1  0  0  0  0
  8 11  2  0  0  0  0
 10  9  2  0  0  0  0
  9  6  1  0  0  0  0
 10 11  1  0  0  0  0
 11 12  1  0  0  0  0
 12 13  1  0  0  0  0
 13  1  1  0  0  0  0
  1 10  1  0  0  0  0
 13 14  2  0  0  0  0
 12 15  1  0  0  0  0
 15 16  1  0  0  0  0
 16 17  1  0  0  0  0
 16 18  2  0  0  0  0
  6 19  1  0  0  0  0
 17 20  1  0  0  0  0
 20 21  1  0  0  0  0
 21 22  1  0  0  0  0
 22 23  1  0  0  0  0
 21 24  2  0  0  0  0
 20 25  1  1  0  0  0
 25 26  1  0  0  0  0
 25 27  1  0  0  0  0
M  END
> <Value>
3.6457570656904505

> <Relation>
=

> <SourceURI>
mol:CHEMBL2376103

$$$$

Generated by Molecular Materials Informatics

 30 33  0  0  0  0  0  0  0  0999 V2000
   25.7835  -23.3314    0.0000 C   0  0  0  0  0  0  0  0  0  0  0  0
   27.2305  -22.9373    0.0000 O   0  0  0  0  0  0  0  0  0  0  0  0
   27.3030  -21.4395    0.0000 C   0  0  0  0  0  0  0  0  0  0  0  0
   25.9006  -20.9076    0.0000 C   0  0  0  0  0  0  0  0  0  0  0  0
   24.9616  -22.0768    0.0000 O   0  0  0  0  0  0  0  0  0  0  0  0
   21.7499  -23.8107    0.0000 C   0  0  0  0  0  0  0  0  0  0  0  0
   21.7479  -25.3151    0.0000 C   0  0  0  0  0  0  0  0  0  0  0  0
   23.0476  -26.0657    0.0000 C   0  0  0  0  0  0  0  0  0  0  0  0
   23.0443  -23.0601    0.0000 C   0  0  0  0  0  0  0  0  0  0  0  0
   24.3451  -23.8041    0.0000 C   0  0  0  0  0  0  0  0  0  0  0  0
   24.3454  -25.3151    0.0000 C   0  0  0  0  0  0  0  0  0  0  0  0
   25.7828  -25.7817    0.0000 N   0  0  0  0  0  0  0  0  0  0  0  0
   26.6706  -24.5589    0.0000 C   0  0  0  0  0  0  0  0  0  0  0  0
   28.1707  -24.5605    0.0000 O   0  0  0  0  0  0  0  0  0  0  0  0
   26.2466  -27.2081    0.0000 C   0  0  0  0  0  0  0  0  0  0  0  0
   27.7140  -27.5196    0.0000 C   0  0  0  0  0  0  0  0  0  0  0  0
   28.1778  -28.9462    0.0000 N   0  0  0  0  0  0  0  0  0  0  0  0
   28.7173  -26.4046    0.0000 O   0  0  0  0  0  0  0  0  0  0  0  0
   20.4507  -23.0610    0.0000 Br  0  0  0  0  0  0  0  0  0  0  0  0
   29.6451  -29.2575    0.0000 C   0  0  0  0  0  0  0  0  0  0  0  0
   30.1090  -30.6841    0.0000 C   0  0  0  0  0  0  0  0  0  0  0  0
   31.5763  -30.9956    0.0000 N   0  0  0  0  0  0  0  0  0  0  0  0
   32.0405  -32.4220    0.0000 O   0  0  0  0  0  0  0  0  0  0  0  0
   29.1057  -31.7990    0.0000 O   0  0  0  0  0  0  0  0  0  0  0  0
   30.6417  -28.1456    0.0000 C   0  0  0  0  0  0  0  0  0  0  0  0
   32.1105  -28.4602    0.0000 C   0  0  0  0  0  0  0  0  0  0  0  0
   33.1135  -27.3465    0.0000 C   0  0  0  0  0  0  0  0  0  0  0  0
   32.6498  -25.9182    0.0000 C   0  0  0  0  0  0  0  0  0  0  0  0
   31.1741  -25.6098    0.0000 C   0  0  0  0  0  0  0  0  0  0  0  0
   30.1775  -26.7259    0.0000 C   0  0  0  0  0  0  0  0  0  0  0  0
  1  2  1  0  0  0  0
  2  3  1  0  0  0  0
  3  4  1  0  0  0  0
  4  5  1  0  0  0  0
  5  1  1  0  0  0  0
  6  7  2  0  0  0  0
  7  8  1  0  0  0  0
  8 11  2  0  0  0  0
 10  9  2  0  0  0  0
  9  6  1  0  0  0  0
 10 11  1  0  0  0  0
 11 12  1  0  0  0  0
 12 13  1  0  0  0  0
 13  1  1  0  0  0  0
  1 10  1  0  0  0  0
 13 14  2  0  0  0  0
 12 15  1  0  0  0  0
 15 16  1  0  0  0  0
 16 17  1  0  0  0  0
 16 18  2  0  0  0  0
  6 19  1  0  0  0  0
 17 20  1  0  0  0  0
 20 21  1  0  0  0  0
 21 22  1  0  0  0  0
 22 23  1  0  0  0  0
 21 24  2  0  0  0  0
 25 26  2  0  0  0  0
 26 27  1  0  0  0  0
 27 28  2  0  0  0  0
 28 29  1  0  0  0  0
 29 30  2  0  0  0  0
 30 25  1  0  0  0  0
 20 25  1  0  0  0  0
M  END
> <Value>
3.0

> <Relation>
<

> <SourceURI>
mol:CHEMBL2376102

$$$$

Generated by Molecular Materials Informatics

 28 30  0  0  0  0  0  0  0  0999 V2000
   16.6681  -23.2283    0.0000 C   0  0  0  0  0  0  0  0  0  0  0  0
   18.1151  -22.8344    0.0000 O   0  0  0  0  0  0  0  0  0  0  0  0
   18.1876  -21.3364    0.0000 C   0  0  0  0  0  0  0  0  0  0  0  0
   16.7854  -20.8047    0.0000 C   0  0  0  0  0  0  0  0  0  0  0  0
   15.8466  -21.9739    0.0000 O   0  0  0  0  0  0  0  0  0  0  0  0
   12.6349  -23.7076    0.0000 C   0  0  0  0  0  0  0  0  0  0  0  0
   12.6327  -25.2120    0.0000 C   0  0  0  0  0  0  0  0  0  0  0  0
   13.9324  -25.9625    0.0000 C   0  0  0  0  0  0  0  0  0  0  0  0
   13.9291  -22.9572    0.0000 C   0  0  0  0  0  0  0  0  0  0  0  0
   15.2298  -23.7010    0.0000 C   0  0  0  0  0  0  0  0  0  0  0  0
   15.2304  -25.2120    0.0000 C   0  0  0  0  0  0  0  0  0  0  0  0
   16.6674  -25.6786    0.0000 N   0  0  0  0  0  0  0  0  0  0  0  0
   17.5553  -24.4557    0.0000 C   0  0  0  0  0  0  0  0  0  0  0  0
   19.0553  -24.4574    0.0000 O   0  0  0  0  0  0  0  0  0  0  0  0
   17.1314  -27.1050    0.0000 C   0  0  0  0  0  0  0  0  0  0  0  0
   18.5986  -27.4165    0.0000 C   0  0  0  0  0  0  0  0  0  0  0  0
   19.0626  -28.8429    0.0000 N   0  0  0  0  0  0  0  0  0  0  0  0
   19.6021  -26.3016    0.0000 O   0  0  0  0  0  0  0  0  0  0  0  0
   11.3357  -22.9579    0.0000 Br  0  0  0  0  0  0  0  0  0  0  0  0
   20.5298  -29.1544    0.0000 C   0  0  0  0  0  0  0  0  0  0  0  0
   20.9938  -30.5809    0.0000 C   0  0  0  0  0  0  0  0  0  0  0  0
   22.4611  -30.8923    0.0000 N   0  0  0  0  0  0  0  0  0  0  0  0
   22.9250  -32.3188    0.0000 O   0  0  0  0  0  0  0  0  0  0  0  0
   19.9903  -31.6959    0.0000 O   0  0  0  0  0  0  0  0  0  0  0  0
   21.5333  -28.0395    0.0000 C   0  0  0  0  0  0  0  0  0  0  0  0
   21.0694  -26.6131    0.0000 C   0  0  0  0  0  0  0  0  0  0  0  0
   23.0006  -28.3509    0.0000 C   0  0  0  0  0  0  0  0  0  0  0  0
   24.0039  -27.2359    0.0000 C   0  0  0  0  0  0  0  0  0  0  0  0
  1  2  1  0  0  0  0
  2  3  1  0  0  0  0
  3  4  1  0  0  0  0
  4  5  1  0  0  0  0
  5  1  1  0  0  0  0
  6  7  2  0  0  0  0
  7  8  1  0  0  0  0
  8 11  2  0  0  0  0
 10  9  2  0  0  0  0
  9  6  1  0  0  0  0
 10 11  1  0  0  0  0
 11 12  1  0  0  0  0
 12 13  1  0  0  0  0
 13  1  1  0  0  0  0
  1 10  1  0  0  0  0
 13 14  2  0  0  0  0
 12 15  1  0  0  0  0
 15 16  1  0  0  0  0
 16 17  1  0  0  0  0
 16 18  2  0  0  0  0
  6 19  1  0  0  0  0
 20 17  1  1  0  0  0
 20 21  1  0  0  0  0
 21 22  1  0  0  0  0
 22 23  1  0  0  0  0
 21 24  2  0  0  0  0
 20 25  1  0  0  0  0
 25 26  1  1  0  0  0
 25 27  1  0  0  0  0
 27 28  1  0  0  0  0
M  END
> <Value>
3.199819249101501

> <Relation>
=

> <SourceURI>
mol:CHEMBL2376101

$$$$

Generated by Molecular Materials Informatics

 28 30  0  0  0  0  0  0  0  0999 V2000
    7.8277  -23.2986    0.0000 C   0  0  0  0  0  0  0  0  0  0  0  0
    9.2746  -22.9047    0.0000 O   0  0  0  0  0  0  0  0  0  0  0  0
    9.3471  -21.4067    0.0000 C   0  0  0  0  0  0  0  0  0  0  0  0
    7.9448  -20.8747    0.0000 C   0  0  0  0  0  0  0  0  0  0  0  0
    7.0059  -22.0442    0.0000 O   0  0  0  0  0  0  0  0  0  0  0  0
    3.7942  -23.7778    0.0000 C   0  0  0  0  0  0  0  0  0  0  0  0
    3.7922  -25.2821    0.0000 C   0  0  0  0  0  0  0  0  0  0  0  0
    5.0918  -26.0328    0.0000 C   0  0  0  0  0  0  0  0  0  0  0  0
    5.0887  -23.0273    0.0000 C   0  0  0  0  0  0  0  0  0  0  0  0
    6.3893  -23.7712    0.0000 C   0  0  0  0  0  0  0  0  0  0  0  0
    6.3897  -25.2823    0.0000 C   0  0  0  0  0  0  0  0  0  0  0  0
    7.8269  -25.7489    0.0000 N   0  0  0  0  0  0  0  0  0  0  0  0
    8.7148  -24.5260    0.0000 C   0  0  0  0  0  0  0  0  0  0  0  0
   10.2148  -24.5277    0.0000 O   0  0  0  0  0  0  0  0  0  0  0  0
    8.2908  -27.1753    0.0000 C   0  0  0  0  0  0  0  0  0  0  0  0
    9.7581  -27.4868    0.0000 C   0  0  0  0  0  0  0  0  0  0  0  0
   10.2220  -28.9132    0.0000 N   0  0  0  0  0  0  0  0  0  0  0  0
   10.7616  -26.3717    0.0000 O   0  0  0  0  0  0  0  0  0  0  0  0
    2.4950  -23.0282    0.0000 Br  0  0  0  0  0  0  0  0  0  0  0  0
   11.6893  -29.2247    0.0000 C   0  0  0  0  0  0  0  0  0  0  0  0
   12.1533  -30.6511    0.0000 C   0  0  0  0  0  0  0  0  0  0  0  0
   13.6205  -30.9626    0.0000 N   0  0  0  0  0  0  0  0  0  0  0  0
   14.0845  -32.3890    0.0000 O   0  0  0  0  0  0  0  0  0  0  0  0
   11.1498  -31.7662    0.0000 O   0  0  0  0  0  0  0  0  0  0  0  0
   12.6928  -28.1097    0.0000 C   0  0  0  0  0  0  0  0  0  0  0  0
   14.1600  -28.4211    0.0000 C   0  0  0  0  0  0  0  0  0  0  0  0
   15.1635  -27.3061    0.0000 C   0  0  0  0  0  0  0  0  0  0  0  0
   14.6240  -29.8476    0.0000 C   0  0  0  0  0  0  0  0  0  0  0  0
  1  2  1  0  0  0  0
  2  3  1  0  0  0  0
  3  4  1  0  0  0  0
  4  5  1  0  0  0  0
  5  1  1  0  0  0  0
  6  7  2  0  0  0  0
  7  8  1  0  0  0  0
  8 11  2  0  0  0  0
 10  9  2  0  0  0  0
  9  6  1  0  0  0  0
 10 11  1  0  0  0  0
 11 12  1  0  0  0  0
 12 13  1  0  0  0  0
 13  1  1  0  0  0  0
  1 10  1  0  0  0  0
 13 14  2  0  0  0  0
 12 15  1  0  0  0  0
 15 16  1  0  0  0  0
 16 17  1  0  0  0  0
 16 18  2  0  0  0  0
  6 19  1  0  0  0  0
 17 20  1  0  0  0  0
 20 21  1  0  0  0  0
 21 22  1  0  0  0  0
 22 23  1  0  0  0  0
 21 24  2  0  0  0  0
 20 25  1  1  0  0  0
 25 26  1  0  0  0  0
 26 27  1  0  0  0  0
 26 28  1  0  0  0  0
M  END
> <Value>
4.648590248074561

> <Relation>
=

> <SourceURI>
mol:CHEMBL2376100

$$$$

Generated by Molecular Materials Informatics

 31 34  0  0  0  0  0  0  0  0999 V2000
   -2.1858  -23.3482    0.0000 C   0  0  0  0  0  0  0  0  0  0  0  0
   -0.7390  -22.9544    0.0000 O   0  0  0  0  0  0  0  0  0  0  0  0
   -0.6753  -21.4565    0.0000 C   0  0  0  0  0  0  0  0  0  0  0  0
   -2.0759  -20.9248    0.0000 C   0  0  0  0  0  0  0  0  0  0  0  0
   -3.0156  -22.0939    0.0000 O   0  0  0  0  0  0  0  0  0  0  0  0
   -6.2279  -23.8275    0.0000 C   0  0  0  0  0  0  0  0  0  0  0  0
   -6.2259  -25.3318    0.0000 C   0  0  0  0  0  0  0  0  0  0  0  0
   -4.9347  -26.0823    0.0000 C   0  0  0  0  0  0  0  0  0  0  0  0
   -4.9314  -23.0772    0.0000 C   0  0  0  0  0  0  0  0  0  0  0  0
   -3.6262  -23.8209    0.0000 C   0  0  0  0  0  0  0  0  0  0  0  0
   -3.6268  -25.3318    0.0000 C   0  0  0  0  0  0  0  0  0  0  0  0
   -2.2003  -25.7983    0.0000 N   0  0  0  0  0  0  0  0  0  0  0  0
   -1.3004  -24.5756    0.0000 C   0  0  0  0  0  0  0  0  0  0  0  0
    0.2019  -24.5772    0.0000 O   0  0  0  0  0  0  0  0  0  0  0  0
   -1.7249  -27.2246    0.0000 C   0  0  0  0  0  0  0  0  0  0  0  0
   -0.2682  -27.5361    0.0000 C   0  0  0  0  0  0  0  0  0  0  0  0
    0.2092  -28.9624    0.0000 N   0  0  0  0  0  0  0  0  0  0  0  0
    0.7487  -26.4213    0.0000 O   0  0  0  0  0  0  0  0  0  0  0  0
   -7.5197  -23.0779    0.0000 Br  0  0  0  0  0  0  0  0  0  0  0  0
    1.6765  -29.2739    0.0000 C   0  0  0  0  0  0  0  0  0  0  0  0
    2.1403  -30.7002    0.0000 C   0  0  0  0  0  0  0  0  0  0  0  0
    3.6075  -31.0117    0.0000 N   0  0  0  0  0  0  0  0  0  0  0  0
    4.0713  -32.4381    0.0000 O   0  0  0  0  0  0  0  0  0  0  0  0
    1.1368  -31.8152    0.0000 O   0  0  0  0  0  0  0  0  0  0  0  0
    2.6797  -28.1590    0.0000 C   0  0  0  0  0  0  0  0  0  0  0  0
    4.1469  -28.4705    0.0000 C   0  0  0  0  0  0  0  0  0  0  0  0
    4.6049  -29.8935    0.0000 C   0  0  0  0  0  0  0  0  0  0  0  0
    6.0706  -30.2054    0.0000 C   0  0  0  0  0  0  0  0  0  0  0  0
    7.0755  -29.0898    0.0000 C   0  0  0  0  0  0  0  0  0  0  0  0
    6.6047  -27.6576    0.0000 C   0  0  0  0  0  0  0  0  0  0  0  0
    5.1401  -27.3526    0.0000 C   0  0  0  0  0  0  0  0  0  0  0  0
  1  2  1  0  0  0  0
  2  3  1  0  0  0  0
  3  4  1  0  0  0  0
  4  5  1  0  0  0  0
  5  1  1  0  0  0  0
  6  7  2  0  0  0  0
  7  8  1  0  0  0  0
  8 11  2  0  0  0  0
 10  9  2  0  0  0  0
  9  6  1  0  0  0  0
 10 11  1  0  0  0  0
 11 12  1  0  0  0  0
 12 13  1  0  0  0  0
 13  1  1  0  0  0  0
  1 10  1  0  0  0  0
 13 14  2  0  0  0  0
 12 15  1  0  0  0  0
 15 16  1  0  0  0  0
 16 17  1  0  0  0  0
 16 18  2  0  0  0  0
  6 19  1  0  0  0  0
 17 20  1  0  0  0  0
 20 21  1  0  0  0  0
 21 22  1  0  0  0  0
 22 23  1  0  0  0  0
 21 24  2  0  0  0  0
 20 25  1  1  0  0  0
 25 26  1  0  0  0  0
 26 27  2  0  0  0  0
 27 28  1  0  0  0  0
 28 29  2  0  0  0  0
 29 30  1  0  0  0  0
 30 31  2  0  0  0  0
 31 26  1  0  0  0  0
M  END
> <Value>
4.5787252087896535

> <Relation>
=

> <SourceURI>
mol:CHEMBL2376117

$$$$

Generated by Molecular Materials Informatics

 24 26  0  0  0  0  0  0  0  0999 V2000
   26.9265  -14.4457    0.0000 C   0  0  0  0  0  0  0  0  0  0  0  0
   28.3734  -14.0518    0.0000 O   0  0  0  0  0  0  0  0  0  0  0  0
   28.4459  -12.5538    0.0000 C   0  0  0  0  0  0  0  0  0  0  0  0
   27.0436  -12.0219    0.0000 C   0  0  0  0  0  0  0  0  0  0  0  0
   26.1047  -13.1911    0.0000 O   0  0  0  0  0  0  0  0  0  0  0  0
   22.8931  -14.9250    0.0000 C   0  0  0  0  0  0  0  0  0  0  0  0
   22.8911  -16.4292    0.0000 C   0  0  0  0  0  0  0  0  0  0  0  0
   24.1906  -17.1799    0.0000 C   0  0  0  0  0  0  0  0  0  0  0  0
   24.1873  -14.1744    0.0000 C   0  0  0  0  0  0  0  0  0  0  0  0
   25.4882  -14.9184    0.0000 C   0  0  0  0  0  0  0  0  0  0  0  0
   25.4885  -16.4294    0.0000 C   0  0  0  0  0  0  0  0  0  0  0  0
   26.9258  -16.8958    0.0000 N   0  0  0  0  0  0  0  0  0  0  0  0
   27.8136  -15.6731    0.0000 C   0  0  0  0  0  0  0  0  0  0  0  0
   29.3136  -15.6748    0.0000 O   0  0  0  0  0  0  0  0  0  0  0  0
   27.3896  -18.3224    0.0000 C   0  0  0  0  0  0  0  0  0  0  0  0
   28.8569  -18.6338    0.0000 C   0  0  0  0  0  0  0  0  0  0  0  0
   29.3208  -20.0602    0.0000 N   0  0  0  0  0  0  0  0  0  0  0  0
   29.8602  -17.5188    0.0000 O   0  0  0  0  0  0  0  0  0  0  0  0
   21.5939  -14.1754    0.0000 Br  0  0  0  0  0  0  0  0  0  0  0  0
   30.7881  -20.3717    0.0000 C   0  0  0  0  0  0  0  0  0  0  0  0
   31.2519  -21.7981    0.0000 C   0  0  0  0  0  0  0  0  0  0  0  0
   32.7192  -22.1096    0.0000 N   0  0  0  0  0  0  0  0  0  0  0  0
   33.1831  -23.5360    0.0000 O   0  0  0  0  0  0  0  0  0  0  0  0
   30.2486  -22.9132    0.0000 O   0  0  0  0  0  0  0  0  0  0  0  0
  1  2  1  0  0  0  0
  2  3  1  0  0  0  0
  3  4  1  0  0  0  0
  4  5  1  0  0  0  0
  5  1  1  0  0  0  0
  6  7  2  0  0  0  0
  7  8  1  0  0  0  0
  8 11  2  0  0  0  0
 10  9  2  0  0  0  0
  9  6  1  0  0  0  0
 10 11  1  0  0  0  0
 11 12  1  0  0  0  0
 12 13  1  0  0  0  0
 13  1  1  0  0  0  0
  1 10  1  0  0  0  0
 13 14  2  0  0  0  0
 12 15  1  0  0  0  0
 15 16  1  0  0  0  0
 16 17  1  0  0  0  0
 16 18  2  0  0  0  0
  6 19  1  0  0  0  0
 17 20  1  0  0  0  0
 20 21  1  0  0  0  0
 21 22  1  0  0  0  0
 22 23  1  0  0  0  0
 21 24  2  0  0  0  0
M  END
> <Value>
5.180456064458132

> <Relation>
=

> <SourceURI>
mol:CHEMBL2376116

$$$$

Generated by Molecular Materials Informatics

 22 24  0  0  0  0  0  0  0  0999 V2000
   13.9831  -16.1796    0.0000 C   0  0  0  0  0  0  0  0  0  0  0  0
   12.9194  -15.1186    0.0000 O   0  0  0  0  0  0  0  0  0  0  0  0
   13.0816  -13.6147    0.0000 C   0  0  0  0  0  0  0  0  0  0  0  0
   15.4856  -16.0046    0.0000 O   0  0  0  0  0  0  0  0  0  0  0  0
   14.3508  -12.8024    0.0000 C   0  0  0  0  0  0  0  0  0  0  0  0
   16.2837  -14.7208    0.0000 C   0  0  0  0  0  0  0  0  0  0  0  0
   15.7740  -13.2983    0.0000 C   0  0  0  0  0  0  0  0  0  0  0  0
    9.9650  -16.6683    0.0000 C   0  0  0  0  0  0  0  0  0  0  0  0
    9.9630  -18.1659    0.0000 C   0  0  0  0  0  0  0  0  0  0  0  0
   11.2568  -18.9133    0.0000 C   0  0  0  0  0  0  0  0  0  0  0  0
   11.2537  -15.9211    0.0000 C   0  0  0  0  0  0  0  0  0  0  0  0
   12.5486  -16.6617    0.0000 C   0  0  0  0  0  0  0  0  0  0  0  0
   12.5489  -18.1659    0.0000 C   0  0  0  0  0  0  0  0  0  0  0  0
   13.9798  -18.6304    0.0000 N   0  0  0  0  0  0  0  0  0  0  0  0
   14.8637  -17.4132    0.0000 C   0  0  0  0  0  0  0  0  0  0  0  0
   16.3571  -17.4146    0.0000 O   0  0  0  0  0  0  0  0  0  0  0  0
   14.4416  -20.0505    0.0000 C   0  0  0  0  0  0  0  0  0  0  0  0
   15.9025  -20.3606    0.0000 C   0  0  0  0  0  0  0  0  0  0  0  0
   16.3642  -21.7809    0.0000 N   0  0  0  0  0  0  0  0  0  0  0  0
   16.9015  -19.2506    0.0000 O   0  0  0  0  0  0  0  0  0  0  0  0
   17.8251  -22.0908    0.0000 O   0  0  0  0  0  0  0  0  0  0  0  0
    8.6715  -15.9218    0.0000 Br  0  0  0  0  0  0  0  0  0  0  0  0
  1  2  1  0  0  0  0
  2  3  1  0  0  0  0
  1  4  1  0  0  0  0
  3  5  1  0  0  0  0
  4  6  1  0  0  0  0
  5  7  1  0  0  0  0
  6  7  1  0  0  0  0
  8  9  2  0  0  0  0
  9 10  1  0  0  0  0
 10 13  2  0  0  0  0
 12 11  2  0  0  0  0
 11  8  1  0  0  0  0
 12 13  1  0  0  0  0
 13 14  1  0  0  0  0
 14 15  1  0  0  0  0
 15  1  1  0  0  0  0
  1 12  1  0  0  0  0
 15 16  2  0  0  0  0
 14 17  1  0  0  0  0
 17 18  1  0  0  0  0
 18 19  1  0  0  0  0
 18 20  2  0  0  0  0
 19 21  1  0  0  0  0
  8 22  1  0  0  0  0
M  END
> <Value>
7.0655015487564325

> <Relation>
=

> <SourceURI>
mol:CHEMBL2376115

$$$$

Generated by Molecular Materials Informatics

 22 24  0  0  0  0  0  0  0  0999 V2000
    7.2681  -16.2415    0.0000 C   0  0  0  0  0  0  0  0  0  0  0  0
    6.2043  -15.1806    0.0000 O   0  0  0  0  0  0  0  0  0  0  0  0
    6.3666  -13.6766    0.0000 C   0  0  0  0  0  0  0  0  0  0  0  0
    8.7707  -16.0666    0.0000 O   0  0  0  0  0  0  0  0  0  0  0  0
    7.6358  -12.8641    0.0000 C   0  0  0  0  0  0  0  0  0  0  0  0
    9.5688  -14.7826    0.0000 C   0  0  0  0  0  0  0  0  0  0  0  0
    9.0591  -13.3601    0.0000 C   0  0  0  0  0  0  0  0  0  0  0  0
    3.2498  -16.7302    0.0000 C   0  0  0  0  0  0  0  0  0  0  0  0
    3.2478  -18.2278    0.0000 C   0  0  0  0  0  0  0  0  0  0  0  0
    4.5417  -18.9753    0.0000 C   0  0  0  0  0  0  0  0  0  0  0  0
    4.5386  -15.9829    0.0000 C   0  0  0  0  0  0  0  0  0  0  0  0
    5.8335  -16.7236    0.0000 C   0  0  0  0  0  0  0  0  0  0  0  0
    5.8339  -18.2278    0.0000 C   0  0  0  0  0  0  0  0  0  0  0  0
    7.2648  -18.6924    0.0000 N   0  0  0  0  0  0  0  0  0  0  0  0
    8.1488  -17.4751    0.0000 C   0  0  0  0  0  0  0  0  0  0  0  0
    9.6422  -17.4767    0.0000 O   0  0  0  0  0  0  0  0  0  0  0  0
    7.7267  -20.1125    0.0000 C   0  0  0  0  0  0  0  0  0  0  0  0
    9.1876  -20.4226    0.0000 C   0  0  0  0  0  0  0  0  0  0  0  0
    9.6494  -21.8430    0.0000 N   0  0  0  0  0  0  0  0  0  0  0  0
   10.1867  -19.3126    0.0000 O   0  0  0  0  0  0  0  0  0  0  0  0
   11.1103  -22.1529    0.0000 O   0  0  0  0  0  0  0  0  0  0  0  0
    1.9563  -15.9836    0.0000 F   0  0  0  0  0  0  0  0  0  0  0  0
  1  2  1  0  0  0  0
  2  3  1  0  0  0  0
  1  4  1  0  0  0  0
  3  5  1  0  0  0  0
  4  6  1  0  0  0  0
  5  7  1  0  0  0  0
  6  7  1  0  0  0  0
  8  9  2  0  0  0  0
  9 10  1  0  0  0  0
 10 13  2  0  0  0  0
 12 11  2  0  0  0  0
 11  8  1  0  0  0  0
 12 13  1  0  0  0  0
 13 14  1  0  0  0  0
 14 15  1  0  0  0  0
 15  1  1  0  0  0  0
  1 12  1  0  0  0  0
 15 16  2  0  0  0  0
 14 17  1  0  0  0  0
 17 18  1  0  0  0  0
 18 19  1  0  0  0  0
 18 20  2  0  0  0  0
 19 21  1  0  0  0  0
  8 22  1  0  0  0  0
M  END
> <Value>
5.391473966422806

> <Relation>
=

> <SourceURI>
mol:CHEMBL2376114

$$$$

Generated by Molecular Materials Informatics

 22 24  0  0  0  0  0  0  0  0999 V2000
    0.9694  -16.5858    0.0000 C   0  0  0  0  0  0  0  0  0  0  0  0
   -0.0928  -15.5262    0.0000 O   0  0  0  0  0  0  0  0  0  0  0  0
    0.0693  -14.0241    0.0000 C   0  0  0  0  0  0  0  0  0  0  0  0
    2.4700  -16.4110    0.0000 O   0  0  0  0  0  0  0  0  0  0  0  0
    1.3368  -13.2127    0.0000 C   0  0  0  0  0  0  0  0  0  0  0  0
    3.2672  -15.1287    0.0000 C   0  0  0  0  0  0  0  0  0  0  0  0
    2.7580  -13.7082    0.0000 C   0  0  0  0  0  0  0  0  0  0  0  0
   -3.0533  -17.0737    0.0000 C   0  0  0  0  0  0  0  0  0  0  0  0
   -3.0513  -18.5695    0.0000 C   0  0  0  0  0  0  0  0  0  0  0  0
   -1.7673  -19.3158    0.0000 C   0  0  0  0  0  0  0  0  0  0  0  0
   -1.7640  -16.3276    0.0000 C   0  0  0  0  0  0  0  0  0  0  0  0
   -0.4662  -17.0671    0.0000 C   0  0  0  0  0  0  0  0  0  0  0  0
   -0.4666  -18.5695    0.0000 C   0  0  0  0  0  0  0  0  0  0  0  0
    0.9661  -19.0334    0.0000 N   0  0  0  0  0  0  0  0  0  0  0  0
    1.8491  -17.8176    0.0000 C   0  0  0  0  0  0  0  0  0  0  0  0
    3.3406  -17.8192    0.0000 O   0  0  0  0  0  0  0  0  0  0  0  0
    1.4275  -20.4517    0.0000 C   0  0  0  0  0  0  0  0  0  0  0  0
    2.8865  -20.7614    0.0000 C   0  0  0  0  0  0  0  0  0  0  0  0
    3.3477  -22.1797    0.0000 N   0  0  0  0  0  0  0  0  0  0  0  0
    3.8841  -19.6529    0.0000 O   0  0  0  0  0  0  0  0  0  0  0  0
    4.8067  -22.4894    0.0000 O   0  0  0  0  0  0  0  0  0  0  0  0
   -4.3376  -16.3283    0.0000 Cl  0  0  0  0  0  0  0  0  0  0  0  0
  1  2  1  0  0  0  0
  2  3  1  0  0  0  0
  1  4  1  0  0  0  0
  3  5  1  0  0  0  0
  4  6  1  0  0  0  0
  5  7  1  0  0  0  0
  6  7  1  0  0  0  0
  8  9  2  0  0  0  0
  9 10  1  0  0  0  0
 10 13  2  0  0  0  0
 12 11  2  0  0  0  0
 11  8  1  0  0  0  0
 12 13  1  0  0  0  0
 13 14  1  0  0  0  0
 14 15  1  0  0  0  0
 15  1  1  0  0  0  0
  1 12  1  0  0  0  0
 15 16  2  0  0  0  0
 14 17  1  0  0  0  0
 17 18  1  0  0  0  0
 18 19  1  0  0  0  0
 18 20  2  0  0  0  0
 19 21  1  0  0  0  0
  8 22  1  0  0  0  0
M  END
> <Value>
7.130768280269024

> <Relation>
=

> <SourceURI>
mol:CHEMBL2376113

$$$$

Generated by Molecular Materials Informatics

 21 23  0  0  0  0  0  0  0  0999 V2000
   27.3267   -8.4340    0.0000 C   0  0  0  0  0  0  0  0  0  0  0  0
   28.7736   -8.0401    0.0000 O   0  0  0  0  0  0  0  0  0  0  0  0
   29.1538   -6.5981    0.0000 C   0  0  0  0  0  0  0  0  0  0  0  0
   28.0928   -5.5397    0.0000 C   0  0  0  0  0  0  0  0  0  0  0  0
   26.6458   -5.9336    0.0000 C   0  0  0  0  0  0  0  0  0  0  0  0
   26.2598   -7.3859    0.0000 O   0  0  0  0  0  0  0  0  0  0  0  0
   23.2937   -8.9188    0.0000 C   0  0  0  0  0  0  0  0  0  0  0  0
   23.2915  -10.4230    0.0000 C   0  0  0  0  0  0  0  0  0  0  0  0
   24.5913  -11.1738    0.0000 C   0  0  0  0  0  0  0  0  0  0  0  0
   24.5880   -8.1682    0.0000 C   0  0  0  0  0  0  0  0  0  0  0  0
   25.8887   -8.9122    0.0000 C   0  0  0  0  0  0  0  0  0  0  0  0
   25.8892  -10.4232    0.0000 C   0  0  0  0  0  0  0  0  0  0  0  0
   27.3263  -10.8898    0.0000 N   0  0  0  0  0  0  0  0  0  0  0  0
   28.2142   -9.6669    0.0000 C   0  0  0  0  0  0  0  0  0  0  0  0
   29.7142   -9.6686    0.0000 O   0  0  0  0  0  0  0  0  0  0  0  0
   27.7903  -12.3162    0.0000 C   0  0  0  0  0  0  0  0  0  0  0  0
   29.2575  -12.6277    0.0000 C   0  0  0  0  0  0  0  0  0  0  0  0
   29.7215  -14.0541    0.0000 N   0  0  0  0  0  0  0  0  0  0  0  0
   30.2610  -11.5126    0.0000 O   0  0  0  0  0  0  0  0  0  0  0  0
   31.1889  -14.3656    0.0000 O   0  0  0  0  0  0  0  0  0  0  0  0
   21.9945   -8.1691    0.0000 C   0  0  0  0  0  0  0  0  0  0  0  0
  1  2  1  0  0  0  0
  1  6  1  0  0  0  0
  2  3  1  0  0  0  0
  3  4  1  0  0  0  0
  4  5  1  0  0  0  0
  5  6  1  0  0  0  0
  7  8  2  0  0  0  0
  8  9  1  0  0  0  0
  9 12  2  0  0  0  0
 11 10  2  0  0  0  0
 10  7  1  0  0  0  0
 11 12  1  0  0  0  0
 12 13  1  0  0  0  0
 13 14  1  0  0  0  0
 14  1  1  0  0  0  0
  1 11  1  0  0  0  0
 14 15  2  0  0  0  0
 13 16  1  0  0  0  0
 16 17  1  0  0  0  0
 17 18  1  0  0  0  0
 17 19  2  0  0  0  0
 18 20  1  0  0  0  0
  7 21  1  0  0  0  0
M  END
> <Value>
5.47755576649368

> <Relation>
=

> <SourceURI>
mol:CHEMBL2376112

$$$$

Generated by Molecular Materials Informatics

 20 22  0  0  0  0  0  0  0  0999 V2000
   20.7456   -8.3515    0.0000 C   0  0  0  0  0  0  0  0  0  0  0  0
   22.1926   -7.9574    0.0000 O   0  0  0  0  0  0  0  0  0  0  0  0
   22.5727   -6.5155    0.0000 C   0  0  0  0  0  0  0  0  0  0  0  0
   21.5118   -5.4573    0.0000 C   0  0  0  0  0  0  0  0  0  0  0  0
   20.0648   -5.8512    0.0000 C   0  0  0  0  0  0  0  0  0  0  0  0
   19.6788   -7.3033    0.0000 O   0  0  0  0  0  0  0  0  0  0  0  0
   16.7128   -8.8363    0.0000 C   0  0  0  0  0  0  0  0  0  0  0  0
   16.7108  -10.3405    0.0000 C   0  0  0  0  0  0  0  0  0  0  0  0
   18.0103  -11.0912    0.0000 C   0  0  0  0  0  0  0  0  0  0  0  0
   18.0070   -8.0857    0.0000 C   0  0  0  0  0  0  0  0  0  0  0  0
   19.3077   -8.8297    0.0000 C   0  0  0  0  0  0  0  0  0  0  0  0
   19.3082  -10.3405    0.0000 C   0  0  0  0  0  0  0  0  0  0  0  0
   20.7454  -10.8071    0.0000 N   0  0  0  0  0  0  0  0  0  0  0  0
   21.6333   -9.5845    0.0000 C   0  0  0  0  0  0  0  0  0  0  0  0
   23.1333   -9.5861    0.0000 O   0  0  0  0  0  0  0  0  0  0  0  0
   21.2093  -12.2335    0.0000 C   0  0  0  0  0  0  0  0  0  0  0  0
   22.6766  -12.5450    0.0000 C   0  0  0  0  0  0  0  0  0  0  0  0
   23.1404  -13.9715    0.0000 N   0  0  0  0  0  0  0  0  0  0  0  0
   23.6799  -11.4301    0.0000 O   0  0  0  0  0  0  0  0  0  0  0  0
   24.6077  -14.2830    0.0000 O   0  0  0  0  0  0  0  0  0  0  0  0
  1  2  1  0  0  0  0
  1  6  1  0  0  0  0
  2  3  1  0  0  0  0
  3  4  1  0  0  0  0
  4  5  1  0  0  0  0
  5  6  1  0  0  0  0
  7  8  2  0  0  0  0
  8  9  1  0  0  0  0
  9 12  2  0  0  0  0
 11 10  2  0  0  0  0
 10  7  1  0  0  0  0
 11 12  1  0  0  0  0
 12 13  1  0  0  0  0
 13 14  1  0  0  0  0
 14  1  1  0  0  0  0
  1 11  1  0  0  0  0
 14 15  2  0  0  0  0
 13 16  1  0  0  0  0
 16 17  1  0  0  0  0
 17 18  1  0  0  0  0
 17 19  2  0  0  0  0
 18 20  1  0  0  0  0
M  END
> <Value>
3.5753796717293453

> <Relation>
=

> <SourceURI>
mol:CHEMBL2376111

$$$$

Generated by Molecular Materials Informatics

 21 23  0  0  0  0  0  0  0  0999 V2000
   14.9120   -8.5207    0.0000 C   0  0  0  0  0  0  0  0  0  0  0  0
   16.3589   -8.1268    0.0000 O   0  0  0  0  0  0  0  0  0  0  0  0
   16.7391   -6.6846    0.0000 C   0  0  0  0  0  0  0  0  0  0  0  0
   15.6781   -5.6264    0.0000 C   0  0  0  0  0  0  0  0  0  0  0  0
   14.2312   -6.0204    0.0000 C   0  0  0  0  0  0  0  0  0  0  0  0
   13.8452   -7.4726    0.0000 O   0  0  0  0  0  0  0  0  0  0  0  0
   10.8791   -9.0055    0.0000 C   0  0  0  0  0  0  0  0  0  0  0  0
   10.8769  -10.5097    0.0000 C   0  0  0  0  0  0  0  0  0  0  0  0
   12.1767  -11.2604    0.0000 C   0  0  0  0  0  0  0  0  0  0  0  0
   12.1734   -8.2549    0.0000 C   0  0  0  0  0  0  0  0  0  0  0  0
   13.4740   -8.9989    0.0000 C   0  0  0  0  0  0  0  0  0  0  0  0
   13.4746  -10.5099    0.0000 C   0  0  0  0  0  0  0  0  0  0  0  0
   14.9116  -10.9763    0.0000 N   0  0  0  0  0  0  0  0  0  0  0  0
   15.7995   -9.7536    0.0000 C   0  0  0  0  0  0  0  0  0  0  0  0
   17.2995   -9.7553    0.0000 O   0  0  0  0  0  0  0  0  0  0  0  0
   15.3756  -12.4029    0.0000 C   0  0  0  0  0  0  0  0  0  0  0  0
   16.8428  -12.7142    0.0000 C   0  0  0  0  0  0  0  0  0  0  0  0
   17.3068  -14.1408    0.0000 N   0  0  0  0  0  0  0  0  0  0  0  0
   17.8463  -11.5993    0.0000 O   0  0  0  0  0  0  0  0  0  0  0  0
   18.7740  -14.4523    0.0000 O   0  0  0  0  0  0  0  0  0  0  0  0
    9.5799   -8.2559    0.0000 Br  0  0  0  0  0  0  0  0  0  0  0  0
  1  2  1  0  0  0  0
  1  6  1  0  0  0  0
  2  3  1  0  0  0  0
  3  4  1  0  0  0  0
  4  5  1  0  0  0  0
  5  6  1  0  0  0  0
  7  8  2  0  0  0  0
  8  9  1  0  0  0  0
  9 12  2  0  0  0  0
 11 10  2  0  0  0  0
 10  7  1  0  0  0  0
 11 12  1  0  0  0  0
 12 13  1  0  0  0  0
 13 14  1  0  0  0  0
 14  1  1  0  0  0  0
  1 11  1  0  0  0  0
 14 15  2  0  0  0  0
 13 16  1  0  0  0  0
 16 17  1  0  0  0  0
 17 18  1  0  0  0  0
 17 19  2  0  0  0  0
 18 20  1  0  0  0  0
  7 21  1  0  0  0  0
M  END
> <Value>
5.468521082957745

> <Relation>
=

> <SourceURI>
mol:CHEMBL2376110

$$$$

Generated by Molecular Materials Informatics

 21 23  0  0  0  0  0  0  0  0999 V2000
    8.0360   -8.5454    0.0000 C   0  0  0  0  0  0  0  0  0  0  0  0
    9.4830   -8.1515    0.0000 O   0  0  0  0  0  0  0  0  0  0  0  0
    9.8631   -6.7094    0.0000 C   0  0  0  0  0  0  0  0  0  0  0  0
    8.8023   -5.6510    0.0000 C   0  0  0  0  0  0  0  0  0  0  0  0
    7.3553   -6.0449    0.0000 C   0  0  0  0  0  0  0  0  0  0  0  0
    6.9691   -7.4972    0.0000 O   0  0  0  0  0  0  0  0  0  0  0  0
    4.0030   -9.0302    0.0000 C   0  0  0  0  0  0  0  0  0  0  0  0
    4.0010  -10.5346    0.0000 C   0  0  0  0  0  0  0  0  0  0  0  0
    5.3006  -11.2852    0.0000 C   0  0  0  0  0  0  0  0  0  0  0  0
    5.2973   -8.2798    0.0000 C   0  0  0  0  0  0  0  0  0  0  0  0
    6.5980   -9.0235    0.0000 C   0  0  0  0  0  0  0  0  0  0  0  0
    6.5985  -10.5346    0.0000 C   0  0  0  0  0  0  0  0  0  0  0  0
    8.0358  -11.0012    0.0000 N   0  0  0  0  0  0  0  0  0  0  0  0
    8.9237   -9.7783    0.0000 C   0  0  0  0  0  0  0  0  0  0  0  0
   10.4237   -9.7800    0.0000 O   0  0  0  0  0  0  0  0  0  0  0  0
    8.4996  -12.4277    0.0000 C   0  0  0  0  0  0  0  0  0  0  0  0
    9.9670  -12.7392    0.0000 C   0  0  0  0  0  0  0  0  0  0  0  0
   10.4309  -14.1656    0.0000 N   0  0  0  0  0  0  0  0  0  0  0  0
   10.9704  -11.6242    0.0000 O   0  0  0  0  0  0  0  0  0  0  0  0
   11.8983  -14.4771    0.0000 O   0  0  0  0  0  0  0  0  0  0  0  0
    2.7037   -8.2805    0.0000 F   0  0  0  0  0  0  0  0  0  0  0  0
  1  2  1  0  0  0  0
  1  6  1  0  0  0  0
  2  3  1  0  0  0  0
  3  4  1  0  0  0  0
  4  5  1  0  0  0  0
  5  6  1  0  0  0  0
  7  8  2  0  0  0  0
  8  9  1  0  0  0  0
  9 12  2  0  0  0  0
 11 10  2  0  0  0  0
 10  7  1  0  0  0  0
 11 12  1  0  0  0  0
 12 13  1  0  0  0  0
 13 14  1  0  0  0  0
 14  1  1  0  0  0  0
  1 11  1  0  0  0  0
 14 15  2  0  0  0  0
 13 16  1  0  0  0  0
 16 17  1  0  0  0  0
 17 18  1  0  0  0  0
 17 19  2  0  0  0  0
 18 20  1  0  0  0  0
  7 21  1  0  0  0  0
M  END
> <Value>
5.1732774798310075

> <Relation>
=

> <SourceURI>
mol:CHEMBL2376109

$$$$

Generated by Molecular Materials Informatics

 21 23  0  0  0  0  0  0  0  0999 V2000
    1.6971   -8.6321    0.0000 C   0  0  0  0  0  0  0  0  0  0  0  0
    3.1440   -8.2382    0.0000 O   0  0  0  0  0  0  0  0  0  0  0  0
    3.5242   -6.7962    0.0000 C   0  0  0  0  0  0  0  0  0  0  0  0
    2.4632   -5.7379    0.0000 C   0  0  0  0  0  0  0  0  0  0  0  0
    1.0163   -6.1318    0.0000 C   0  0  0  0  0  0  0  0  0  0  0  0
    0.6303   -7.5841    0.0000 O   0  0  0  0  0  0  0  0  0  0  0  0
   -2.3456   -9.1169    0.0000 C   0  0  0  0  0  0  0  0  0  0  0  0
   -2.3436  -10.6213    0.0000 C   0  0  0  0  0  0  0  0  0  0  0  0
   -1.0523  -11.3718    0.0000 C   0  0  0  0  0  0  0  0  0  0  0  0
   -1.0490   -8.3665    0.0000 C   0  0  0  0  0  0  0  0  0  0  0  0
    0.2591   -9.1103    0.0000 C   0  0  0  0  0  0  0  0  0  0  0  0
    0.2597  -10.6213    0.0000 C   0  0  0  0  0  0  0  0  0  0  0  0
    1.6967  -11.0879    0.0000 N   0  0  0  0  0  0  0  0  0  0  0  0
    2.5847   -9.8651    0.0000 C   0  0  0  0  0  0  0  0  0  0  0  0
    4.0845   -9.8667    0.0000 O   0  0  0  0  0  0  0  0  0  0  0  0
    2.1607  -12.5143    0.0000 C   0  0  0  0  0  0  0  0  0  0  0  0
    3.6281  -12.8257    0.0000 C   0  0  0  0  0  0  0  0  0  0  0  0
    4.0919  -14.2521    0.0000 N   0  0  0  0  0  0  0  0  0  0  0  0
    4.6313  -11.7107    0.0000 O   0  0  0  0  0  0  0  0  0  0  0  0
    5.5592  -14.5636    0.0000 O   0  0  0  0  0  0  0  0  0  0  0  0
   -3.6373   -8.3673    0.0000 Cl  0  0  0  0  0  0  0  0  0  0  0  0
  1  2  1  0  0  0  0
  1  6  1  0  0  0  0
  2  3  1  0  0  0  0
  3  4  1  0  0  0  0
  4  5  1  0  0  0  0
  5  6  1  0  0  0  0
  7  8  2  0  0  0  0
  8  9  1  0  0  0  0
  9 12  2  0  0  0  0
 11 10  2  0  0  0  0
 10  7  1  0  0  0  0
 11 12  1  0  0  0  0
 12 13  1  0  0  0  0
 13 14  1  0  0  0  0
 14  1  1  0  0  0  0
  1 11  1  0  0  0  0
 14 15  2  0  0  0  0
 13 16  1  0  0  0  0
 16 17  1  0  0  0  0
 17 18  1  0  0  0  0
 17 19  2  0  0  0  0
 18 20  1  0  0  0  0
  7 21  1  0  0  0  0
M  END
> <Value>
5.886056647693163

> <Relation>
=

> <SourceURI>
mol:CHEMBL2376108

$$$$

Generated by Molecular Materials Informatics

 20 22  0  0  0  0  0  0  0  0999 V2000
   27.6243   -0.8979    0.0000 C   0  0  0  0  0  0  0  0  0  0  0  0
   29.0712   -0.5040    0.0000 O   0  0  0  0  0  0  0  0  0  0  0  0
   29.1437    0.9938    0.0000 C   0  0  0  0  0  0  0  0  0  0  0  0
   27.7414    1.5257    0.0000 C   0  0  0  0  0  0  0  0  0  0  0  0
   26.8025    0.3565    0.0000 O   0  0  0  0  0  0  0  0  0  0  0  0
   23.5909   -1.3774    0.0000 C   0  0  0  0  0  0  0  0  0  0  0  0
   23.5889   -2.8816    0.0000 C   0  0  0  0  0  0  0  0  0  0  0  0
   24.8884   -3.6323    0.0000 C   0  0  0  0  0  0  0  0  0  0  0  0
   24.8851   -0.6268    0.0000 C   0  0  0  0  0  0  0  0  0  0  0  0
   26.1860   -1.3708    0.0000 C   0  0  0  0  0  0  0  0  0  0  0  0
   26.1863   -2.8816    0.0000 C   0  0  0  0  0  0  0  0  0  0  0  0
   27.6236   -3.3482    0.0000 N   0  0  0  0  0  0  0  0  0  0  0  0
   28.5114   -2.1255    0.0000 C   0  0  0  0  0  0  0  0  0  0  0  0
   30.0114   -2.1272    0.0000 O   0  0  0  0  0  0  0  0  0  0  0  0
   28.0874   -4.7746    0.0000 C   0  0  0  0  0  0  0  0  0  0  0  0
   29.5547   -5.0860    0.0000 C   0  0  0  0  0  0  0  0  0  0  0  0
   30.0186   -6.5126    0.0000 N   0  0  0  0  0  0  0  0  0  0  0  0
   30.5580   -3.9711    0.0000 O   0  0  0  0  0  0  0  0  0  0  0  0
   31.4859   -6.8241    0.0000 O   0  0  0  0  0  0  0  0  0  0  0  0
   22.2917   -0.6276    0.0000 C   0  0  0  0  0  0  0  0  0  0  0  0
  1  2  1  0  0  0  0
  2  3  1  0  0  0  0
  3  4  1  0  0  0  0
  4  5  1  0  0  0  0
  5  1  1  0  0  0  0
  6  7  2  0  0  0  0
  7  8  1  0  0  0  0
  8 11  2  0  0  0  0
 10  9  2  0  0  0  0
  9  6  1  0  0  0  0
 10 11  1  0  0  0  0
 11 12  1  0  0  0  0
 12 13  1  0  0  0  0
 13  1  1  0  0  0  0
  1 10  1  0  0  0  0
 13 14  2  0  0  0  0
 12 15  1  0  0  0  0
 15 16  1  0  0  0  0
 16 17  1  0  0  0  0
 16 18  2  0  0  0  0
 17 19  1  0  0  0  0
  6 20  1  0  0  0  0
M  END
> <Value>
5.580044251510242

> <Relation>
=

> <SourceURI>
mol:CHEMBL2376107

$$$$

Generated by Molecular Materials Informatics

 19 21  0  0  0  0  0  0  0  0999 V2000
   20.6263   -0.7206    0.0000 C   0  0  0  0  0  0  0  0  0  0  0  0
   22.0732   -0.3267    0.0000 O   0  0  0  0  0  0  0  0  0  0  0  0
   22.1459    1.1713    0.0000 C   0  0  0  0  0  0  0  0  0  0  0  0
   20.7436    1.7032    0.0000 C   0  0  0  0  0  0  0  0  0  0  0  0
   19.8047    0.5340    0.0000 O   0  0  0  0  0  0  0  0  0  0  0  0
   16.5931   -1.1999    0.0000 C   0  0  0  0  0  0  0  0  0  0  0  0
   16.5911   -2.7041    0.0000 C   0  0  0  0  0  0  0  0  0  0  0  0
   17.8906   -3.4548    0.0000 C   0  0  0  0  0  0  0  0  0  0  0  0
   17.8873   -0.4493    0.0000 C   0  0  0  0  0  0  0  0  0  0  0  0
   19.1880   -1.1933    0.0000 C   0  0  0  0  0  0  0  0  0  0  0  0
   19.1885   -2.7043    0.0000 C   0  0  0  0  0  0  0  0  0  0  0  0
   20.6257   -3.1707    0.0000 N   0  0  0  0  0  0  0  0  0  0  0  0
   21.5136   -1.9480    0.0000 C   0  0  0  0  0  0  0  0  0  0  0  0
   23.0136   -1.9497    0.0000 O   0  0  0  0  0  0  0  0  0  0  0  0
   21.0896   -4.5972    0.0000 C   0  0  0  0  0  0  0  0  0  0  0  0
   22.5569   -4.9087    0.0000 C   0  0  0  0  0  0  0  0  0  0  0  0
   23.0207   -6.3351    0.0000 N   0  0  0  0  0  0  0  0  0  0  0  0
   23.5602   -3.7936    0.0000 O   0  0  0  0  0  0  0  0  0  0  0  0
   24.4880   -6.6466    0.0000 O   0  0  0  0  0  0  0  0  0  0  0  0
  1  2  1  0  0  0  0
  2  3  1  0  0  0  0
  3  4  1  0  0  0  0
  4  5  1  0  0  0  0
  5  1  1  0  0  0  0
  6  7  2  0  0  0  0
  7  8  1  0  0  0  0
  8 11  2  0  0  0  0
 10  9  2  0  0  0  0
  9  6  1  0  0  0  0
 10 11  1  0  0  0  0
 11 12  1  0  0  0  0
 12 13  1  0  0  0  0
 13  1  1  0  0  0  0
  1 10  1  0  0  0  0
 13 14  2  0  0  0  0
 12 15  1  0  0  0  0
 15 16  1  0  0  0  0
 16 17  1  0  0  0  0
 16 18  2  0  0  0  0
 17 19  1  0  0  0  0
M  END
> <Value>
3.6795836625438305

> <Relation>
=

> <SourceURI>
mol:CHEMBL2376106

$$$$

Generated by Molecular Materials Informatics

 20 22  0  0  0  0  0  0  0  0999 V2000
   -3.4901    4.3194    0.0000 Br  0  0  0  0  0  0  0  0  0  0  0  0
    1.9467    0.3144    0.0000 O   0  0  0  0  0  0  0  0  0  0  0  0
    0.5853    2.3237    0.0000 O   0  0  0  0  0  0  0  0  0  0  0  0
    1.6707   -1.5958    0.0000 O   0  0  0  0  0  0  0  0  0  0  0  0
    0.9789   -3.3853    0.0000 O   0  0  0  0  0  0  0  0  0  0  0  0
   -0.0411   -6.2066    0.0000 O   0  0  0  0  0  0  0  0  0  0  0  0
   -0.9542   -1.0912    0.0000 N   0  0  0  0  0  0  0  0  0  0  0  0
   -1.0079   -5.0595    0.0000 N   0  0  0  0  0  0  0  0  0  0  0  0
    0.5360    0.8244    0.0000 C   0  0  0  0  0  0  0  0  0  0  0  0
   -0.8746    1.3346    0.0000 C   0  0  0  0  0  0  0  0  0  0  0  0
    0.4869   -0.6747    0.0000 C   0  0  0  0  0  0  0  0  0  0  0  0
   -1.7957    0.1506    0.0000 C   0  0  0  0  0  0  0  0  0  0  0  0
   -1.4395    2.7243    0.0000 C   0  0  0  0  0  0  0  0  0  0  0  0
   -3.2815    0.3562    0.0000 C   0  0  0  0  0  0  0  0  0  0  0  0
   -1.4642   -2.5018    0.0000 C   0  0  0  0  0  0  0  0  0  0  0  0
   -2.9253    2.9299    0.0000 C   0  0  0  0  0  0  0  0  0  0  0  0
    2.8677    1.4984    0.0000 C   0  0  0  0  0  0  0  0  0  0  0  0
    2.0264    2.7403    0.0000 C   0  0  0  0  0  0  0  0  0  0  0  0
   -3.8463    1.7459    0.0000 C   0  0  0  0  0  0  0  0  0  0  0  0
   -0.4977   -3.6489    0.0000 C   0  0  0  0  0  0  0  0  0  0  0  0
  1 16  1  0  0  0  0
  2  9  1  0  0  0  0
  2 17  1  0  0  0  0
  3  9  1  0  0  0  0
  3 18  1  0  0  0  0
  4 11  2  0  0  0  0
  5 20  2  0  0  0  0
  6  8  1  0  0  0  0
  7 11  1  0  0  0  0
  7 12  1  0  0  0  0
  7 15  1  0  0  0  0
  8 20  1  0  0  0  0
  9 10  1  0  0  0  0
  9 11  1  0  0  0  0
 10 12  1  0  0  0  0
 10 13  2  0  0  0  0
 12 14  2  0  0  0  0
 13 16  1  0  0  0  0
 14 19  1  0  0  0  0
 15 20  1  0  0  0  0
 16 19  2  0  0  0  0
 17 18  1  0  0  0  0
M  END
> <Value>
5.937747887582859

> <Error>
1.0118992232997073

> <Relation>
=

> <SourceURI>
mol:CHEMBL1712297

$$$$

Generated by Molecular Materials Informatics

 20 22  0  0  0  0  0  0  0  0999 V2000
    8.2882   -0.8692    0.0000 C   0  0  0  0  0  0  0  0  0  0  0  0
    9.7351   -0.4751    0.0000 O   0  0  0  0  0  0  0  0  0  0  0  0
    9.8077    1.0227    0.0000 C   0  0  0  0  0  0  0  0  0  0  0  0
    8.4055    1.5547    0.0000 C   0  0  0  0  0  0  0  0  0  0  0  0
    7.4666    0.3854    0.0000 O   0  0  0  0  0  0  0  0  0  0  0  0
    4.2549   -1.3484    0.0000 C   0  0  0  0  0  0  0  0  0  0  0  0
    4.2527   -2.8527    0.0000 C   0  0  0  0  0  0  0  0  0  0  0  0
    5.5524   -3.6034    0.0000 C   0  0  0  0  0  0  0  0  0  0  0  0
    5.5491   -0.5979    0.0000 C   0  0  0  0  0  0  0  0  0  0  0  0
    6.8498   -1.3418    0.0000 C   0  0  0  0  0  0  0  0  0  0  0  0
    6.8504   -2.8529    0.0000 C   0  0  0  0  0  0  0  0  0  0  0  0
    8.2874   -3.3193    0.0000 N   0  0  0  0  0  0  0  0  0  0  0  0
    9.1753   -2.0966    0.0000 C   0  0  0  0  0  0  0  0  0  0  0  0
   10.6753   -2.0983    0.0000 O   0  0  0  0  0  0  0  0  0  0  0  0
    8.7515   -4.7459    0.0000 C   0  0  0  0  0  0  0  0  0  0  0  0
   10.2186   -5.0572    0.0000 C   0  0  0  0  0  0  0  0  0  0  0  0
   10.6827   -6.4838    0.0000 N   0  0  0  0  0  0  0  0  0  0  0  0
   11.2221   -3.9423    0.0000 O   0  0  0  0  0  0  0  0  0  0  0  0
   12.1498   -6.7953    0.0000 O   0  0  0  0  0  0  0  0  0  0  0  0
    2.9557   -0.5988    0.0000 F   0  0  0  0  0  0  0  0  0  0  0  0
  1  2  1  0  0  0  0
  2  3  1  0  0  0  0
  3  4  1  0  0  0  0
  4  5  1  0  0  0  0
  5  1  1  0  0  0  0
  6  7  2  0  0  0  0
  7  8  1  0  0  0  0
  8 11  2  0  0  0  0
 10  9  2  0  0  0  0
  9  6  1  0  0  0  0
 10 11  1  0  0  0  0
 11 12  1  0  0  0  0
 12 13  1  0  0  0  0
 13  1  1  0  0  0  0
  1 10  1  0  0  0  0
 13 14  2  0  0  0  0
 12 15  1  0  0  0  0
 15 16  1  0  0  0  0
 16 17  1  0  0  0  0
 16 18  2  0  0  0  0
 17 19  1  0  0  0  0
  6 20  1  0  0  0  0
M  END
> <Value>
5.275724130399211

> <Relation>
=

> <SourceURI>
mol:CHEMBL2376105

$$$$

Generated by Molecular Materials Informatics

 20 22  0  0  0  0  0  0  0  0999 V2000
    1.2930   -1.1497    0.0000 C   0  0  0  0  0  0  0  0  0  0  0  0
    2.7400   -0.7558    0.0000 O   0  0  0  0  0  0  0  0  0  0  0  0
    2.8127    0.7422    0.0000 C   0  0  0  0  0  0  0  0  0  0  0  0
    1.4103    1.2740    0.0000 C   0  0  0  0  0  0  0  0  0  0  0  0
    0.4714    0.1047    0.0000 O   0  0  0  0  0  0  0  0  0  0  0  0
   -2.7503   -1.6290    0.0000 C   0  0  0  0  0  0  0  0  0  0  0  0
   -2.7482   -3.1334    0.0000 C   0  0  0  0  0  0  0  0  0  0  0  0
   -1.4569   -3.8840    0.0000 C   0  0  0  0  0  0  0  0  0  0  0  0
   -1.4536   -0.8786    0.0000 C   0  0  0  0  0  0  0  0  0  0  0  0
   -0.1454   -1.6224    0.0000 C   0  0  0  0  0  0  0  0  0  0  0  0
   -0.1448   -3.1334    0.0000 C   0  0  0  0  0  0  0  0  0  0  0  0
    1.2924   -3.6000    0.0000 N   0  0  0  0  0  0  0  0  0  0  0  0
    2.1803   -2.3772    0.0000 C   0  0  0  0  0  0  0  0  0  0  0  0
    3.6803   -2.3788    0.0000 O   0  0  0  0  0  0  0  0  0  0  0  0
    1.7563   -5.0265    0.0000 C   0  0  0  0  0  0  0  0  0  0  0  0
    3.2236   -5.3380    0.0000 C   0  0  0  0  0  0  0  0  0  0  0  0
    3.6875   -6.7644    0.0000 N   0  0  0  0  0  0  0  0  0  0  0  0
    4.2270   -4.2230    0.0000 O   0  0  0  0  0  0  0  0  0  0  0  0
    5.1549   -7.0759    0.0000 O   0  0  0  0  0  0  0  0  0  0  0  0
   -4.0420   -0.8793    0.0000 Cl  0  0  0  0  0  0  0  0  0  0  0  0
  1  2  1  0  0  0  0
  2  3  1  0  0  0  0
  3  4  1  0  0  0  0
  4  5  1  0  0  0  0
  5  1  1  0  0  0  0
  6  7  2  0  0  0  0
  7  8  1  0  0  0  0
  8 11  2  0  0  0  0
 10  9  2  0  0  0  0
  9  6  1  0  0  0  0
 10 11  1  0  0  0  0
 11 12  1  0  0  0  0
 12 13  1  0  0  0  0
 13  1  1  0  0  0  0
  1 10  1  0  0  0  0
 13 14  2  0  0  0  0
 12 15  1  0  0  0  0
 15 16  1  0  0  0  0
 16 17  1  0  0  0  0
 16 18  2  0  0  0  0
 17 19  1  0  0  0  0
  6 20  1  0  0  0  0
M  END
> <Value>
6.508638306165727

> <Relation>
=

> <SourceURI>
mol:CHEMBL2376104

$$$$

Generated by Molecular Materials Informatics

 31 32  0  0  0  0  0  0  0  0999 V2000
    5.5153    0.5904    0.0000 N   0  0  0  0  0  0  0  0  0  0  0  0
    6.8433    1.2925    0.0000 C   0  0  0  0  0  0  0  0  0  0  0  0
    6.9018    2.7935    0.0000 O   0  0  0  0  0  0  0  0  0  0  0  0
    8.1128    0.4936    0.0000 N   0  0  0  0  0  0  0  0  0  0  0  0
    8.0543   -1.0074    0.0000 C   0  0  0  0  0  0  0  0  0  0  0  0
    9.3239   -1.8062    0.0000 C   0  0  0  0  0  0  0  0  0  0  0  0
   10.6518   -1.1041    0.0000 C   0  0  0  0  0  0  0  0  0  0  0  0
   11.9214   -1.9030    0.0000 C   0  0  0  0  0  0  0  0  0  0  0  0
   11.8628   -3.4040    0.0000 C   0  0  0  0  0  0  0  0  0  0  0  0
   10.5349   -4.1061    0.0000 C   0  0  0  0  0  0  0  0  0  0  0  0
    9.2655   -3.3073    0.0000 C   0  0  0  0  0  0  0  0  0  0  0  0
    4.1956    1.2845    0.0000 C   0  0  0  0  0  0  0  0  0  0  0  0
    0.2730    0.6834    0.0000 C   0  0  0  0  0  0  0  0  0  0  0  0
   -0.9965    1.4823    0.0000 C   0  0  0  0  0  0  0  0  0  0  0  0
   -2.3245    0.7802    0.0000 N   0  0  0  0  0  0  0  0  0  0  0  0
   -3.5938    1.5790    0.0000 C   0  0  0  0  0  0  0  0  0  0  0  0
   -3.5355    3.0801    0.0000 O   0  0  0  0  0  0  0  0  0  0  0  0
   -4.9218    0.8769    0.0000 O   0  0  0  0  0  0  0  0  0  0  0  0
   -6.1913    1.6758    0.0000 C   0  0  0  0  0  0  0  0  0  0  0  0
   -7.5153    0.9800    0.0000 C   0  0  0  0  0  0  0  0  0  0  0  0
   -7.5736   -0.5210    0.0000 C   0  0  0  0  0  0  0  0  0  0  0  0
   -8.8976   -1.2166    0.0000 C   0  0  0  0  0  0  0  0  0  0  0  0
  -10.1670   -0.4180    0.0000 C   0  0  0  0  0  0  0  0  0  0  0  0
  -10.1126    1.0767    0.0000 C   0  0  0  0  0  0  0  0  0  0  0  0
   -8.7847    1.7788    0.0000 C   0  0  0  0  0  0  0  0  0  0  0  0
    1.5995    1.3834    0.0000 C   0  0  0  0  0  0  0  0  0  0  0  0
    2.8691    0.5845    0.0000 C   0  0  0  0  0  0  0  0  0  0  0  0
    4.1943    2.7844    0.0000 C   0  0  0  0  0  0  0  0  0  0  0  0
    5.4926    3.5355    0.0000 O   0  0  0  0  0  0  0  0  0  0  0  0
    2.8947    3.5333    0.0000 O   0  0  0  0  0  0  0  0  0  0  0  0
    2.8935    5.0332    0.0000 C   0  0  0  0  0  0  0  0  0  0  0  0
  8  9  1  0  0  0  0
  9 10  2  0  0  0  0
 10 11  1  0  0  0  0
  6 11  2  0  0  0  0
  4  5  1  0  0  0  0
 12  1  1  0  0  0  0
 13 14  1  0  0  0  0
 16 17  2  0  0  0  0
 19 20  1  0  0  0  0
 20 21  1  0  0  0  0
 21 22  2  0  0  0  0
 22 23  1  0  0  0  0
 23 24  2  0  0  0  0
 24 25  1  0  0  0  0
 20 25  2  0  0  0  0
 18 19  1  0  0  0  0
 16 18  1  0  0  0  0
 15 16  1  0  0  0  0
 14 15  1  0  0  0  0
  1  2  1  0  0  0  0
 13 26  1  0  0  0  0
  2  3  2  0  0  0  0
 26 27  1  0  0  0  0
 12 27  1  1  0  0  0
  2  4  1  0  0  0  0
 12 28  1  0  0  0  0
  5  6  1  0  0  0  0
 28 29  2  0  0  0  0
  6  7  1  0  0  0  0
 28 30  1  0  0  0  0
  7  8  2  0  0  0  0
 30 31  1  0  0  0  0
M  END
> <Value>
4.301029995663981

> <Relation>
<

> <SourceURI>
mol:CHEMBL1643410

$$$$

Generated by Molecular Materials Informatics

 32 33  0  0  0  0  0  0  0  0999 V2000
   20.3110   -0.8308    0.0000 N   0  0  0  0  0  0  0  0  0  0  0  0
   21.6390   -0.1286    0.0000 C   0  0  0  0  0  0  0  0  0  0  0  0
   21.6974    1.3725    0.0000 O   0  0  0  0  0  0  0  0  0  0  0  0
   22.9087   -0.9273    0.0000 N   0  0  0  0  0  0  0  0  0  0  0  0
   18.9912   -0.1364    0.0000 C   0  0  0  0  0  0  0  0  0  0  0  0
   15.0682   -0.7375    0.0000 C   0  0  0  0  0  0  0  0  0  0  0  0
   13.7988    0.0614    0.0000 C   0  0  0  0  0  0  0  0  0  0  0  0
   12.4707   -0.6408    0.0000 N   0  0  0  0  0  0  0  0  0  0  0  0
   11.2011    0.1580    0.0000 C   0  0  0  0  0  0  0  0  0  0  0  0
   11.2596    1.6591    0.0000 O   0  0  0  0  0  0  0  0  0  0  0  0
    9.8731   -0.5440    0.0000 O   0  0  0  0  0  0  0  0  0  0  0  0
    8.6036    0.2547    0.0000 C   0  0  0  0  0  0  0  0  0  0  0  0
    7.2796   -0.4409    0.0000 C   0  0  0  0  0  0  0  0  0  0  0  0
    7.2212   -1.9420    0.0000 C   0  0  0  0  0  0  0  0  0  0  0  0
    5.8972   -2.6379    0.0000 C   0  0  0  0  0  0  0  0  0  0  0  0
    4.6276   -1.8389    0.0000 C   0  0  0  0  0  0  0  0  0  0  0  0
    4.6821   -0.3442    0.0000 C   0  0  0  0  0  0  0  0  0  0  0  0
    6.0099    0.3580    0.0000 C   0  0  0  0  0  0  0  0  0  0  0  0
   16.3950   -0.0375    0.0000 C   0  0  0  0  0  0  0  0  0  0  0  0
   17.6644   -0.8364    0.0000 C   0  0  0  0  0  0  0  0  0  0  0  0
   18.9899    1.3636    0.0000 C   0  0  0  0  0  0  0  0  0  0  0  0
   20.2883    2.1147    0.0000 O   0  0  0  0  0  0  0  0  0  0  0  0
   17.6903    2.1126    0.0000 O   0  0  0  0  0  0  0  0  0  0  0  0
   17.6890    3.6126    0.0000 C   0  0  0  0  0  0  0  0  0  0  0  0
   24.2352   -0.2273    0.0000 C   0  0  0  0  0  0  0  0  0  0  0  0
   25.5049   -1.0262    0.0000 C   0  0  0  0  0  0  0  0  0  0  0  0
   26.8315   -0.3262    0.0000 C   0  0  0  0  0  0  0  0  0  0  0  0
   28.0953   -1.1319    0.0000 C   0  0  0  0  0  0  0  0  0  0  0  0
   29.4209   -0.4331    0.0000 C   0  0  0  0  0  0  0  0  0  0  0  0
   29.4789    1.0674    0.0000 C   0  0  0  0  0  0  0  0  0  0  0  0
   28.2002    1.8664    0.0000 C   0  0  0  0  0  0  0  0  0  0  0  0
   26.8798    1.1631    0.0000 C   0  0  0  0  0  0  0  0  0  0  0  0
 11 12  1  0  0  0  0
  9 11  1  0  0  0  0
  8  9  1  0  0  0  0
  7  8  1  0  0  0  0
  6 19  1  0  0  0  0
  5  1  1  0  0  0  0
 19 20  1  0  0  0  0
  5 20  1  1  0  0  0
  1  2  1  0  0  0  0
  5 21  1  0  0  0  0
  2  3  2  0  0  0  0
 21 22  2  0  0  0  0
  2  4  1  0  0  0  0
 21 23  1  0  0  0  0
  6  7  1  0  0  0  0
 23 24  1  0  0  0  0
  9 10  2  0  0  0  0
  4 25  1  0  0  0  0
 12 13  1  0  0  0  0
 25 26  1  0  0  0  0
 13 14  1  0  0  0  0
 26 27  1  0  0  0  0
 14 15  2  0  0  0  0
 27 28  2  0  0  0  0
 15 16  1  0  0  0  0
 28 29  1  0  0  0  0
 16 17  2  0  0  0  0
 29 30  2  0  0  0  0
 17 18  1  0  0  0  0
 30 31  1  0  0  0  0
 13 18  2  0  0  0  0
 31 32  2  0  0  0  0
 32 27  1  0  0  0  0
M  END
> <Value>
4.301029995663981

> <Relation>
<

> <SourceURI>
mol:CHEMBL1643411

$$$$

Generated by Molecular Materials Informatics

 28 28  0  0  0  0  0  0  0  0999 V2000
    5.9589   -7.1098    0.0000 N   0  0  0  0  0  0  0  0  0  0  0  0
    7.2869   -6.4076    0.0000 C   0  0  0  0  0  0  0  0  0  0  0  0
    7.3455   -4.9065    0.0000 O   0  0  0  0  0  0  0  0  0  0  0  0
    8.5566   -7.2065    0.0000 N   0  0  0  0  0  0  0  0  0  0  0  0
    4.6391   -6.4156    0.0000 C   0  0  0  0  0  0  0  0  0  0  0  0
    0.7164   -7.0167    0.0000 C   0  0  0  0  0  0  0  0  0  0  0  0
   -0.5533   -6.2178    0.0000 C   0  0  0  0  0  0  0  0  0  0  0  0
   -1.8813   -6.9200    0.0000 N   0  0  0  0  0  0  0  0  0  0  0  0
   -3.1507   -6.1211    0.0000 C   0  0  0  0  0  0  0  0  0  0  0  0
   -3.0924   -4.6200    0.0000 O   0  0  0  0  0  0  0  0  0  0  0  0
   -4.4787   -6.8233    0.0000 O   0  0  0  0  0  0  0  0  0  0  0  0
   -5.7484   -6.0243    0.0000 C   0  0  0  0  0  0  0  0  0  0  0  0
   -7.0724   -6.7202    0.0000 C   0  0  0  0  0  0  0  0  0  0  0  0
   -7.1307   -8.2213    0.0000 C   0  0  0  0  0  0  0  0  0  0  0  0
   -8.4547   -8.9169    0.0000 C   0  0  0  0  0  0  0  0  0  0  0  0
   -9.7242   -8.1182    0.0000 C   0  0  0  0  0  0  0  0  0  0  0  0
   -9.6698   -6.6234    0.0000 C   0  0  0  0  0  0  0  0  0  0  0  0
   -8.3418   -5.9213    0.0000 C   0  0  0  0  0  0  0  0  0  0  0  0
    2.0429   -6.3167    0.0000 C   0  0  0  0  0  0  0  0  0  0  0  0
    3.3126   -7.1156    0.0000 C   0  0  0  0  0  0  0  0  0  0  0  0
    4.6378   -4.9156    0.0000 C   0  0  0  0  0  0  0  0  0  0  0  0
    5.9362   -4.1645    0.0000 O   0  0  0  0  0  0  0  0  0  0  0  0
    3.3382   -4.1667    0.0000 O   0  0  0  0  0  0  0  0  0  0  0  0
    3.3369   -2.6667    0.0000 C   0  0  0  0  0  0  0  0  0  0  0  0
    9.8831   -6.5065    0.0000 C   0  0  0  0  0  0  0  0  0  0  0  0
   11.1528   -7.3054    0.0000 C   0  0  0  0  0  0  0  0  0  0  0  0
    9.9402   -5.0076    0.0000 C   0  0  0  0  0  0  0  0  0  0  0  0
   11.1726   -5.7462    0.0000 C   0  0  0  0  0  0  0  0  0  0  0  0
 15 16  1  0  0  0  0
 16 17  2  0  0  0  0
 17 18  1  0  0  0  0
 13 18  2  0  0  0  0
 11 12  1  0  0  0  0
  9 11  1  0  0  0  0
  8  9  1  0  0  0  0
  7  8  1  0  0  0  0
  6 19  1  0  0  0  0
  5  1  1  0  0  0  0
 19 20  1  0  0  0  0
  5 20  1  1  0  0  0
  1  2  1  0  0  0  0
  5 21  1  0  0  0  0
  2  3  2  0  0  0  0
 21 22  2  0  0  0  0
  2  4  1  0  0  0  0
 21 23  1  0  0  0  0
  6  7  1  0  0  0  0
 23 24  1  0  0  0  0
  9 10  2  0  0  0  0
  4 25  1  0  0  0  0
 12 13  1  0  0  0  0
 25 26  1  0  0  0  0
 13 14  1  0  0  0  0
 25 27  1  0  0  0  0
 14 15  2  0  0  0  0
 25 28  1  0  0  0  0
M  END
> <Value>
4.301029995663981

> <Relation>
<

> <SourceURI>
mol:CHEMBL1643412

$$$$

Generated by Molecular Materials Informatics

 31 32  0  0  0  0  0  0  0  0999 V2000
   20.0071   -6.3471    0.0000 N   0  0  0  0  0  0  0  0  0  0  0  0
   21.3350   -5.6450    0.0000 C   0  0  0  0  0  0  0  0  0  0  0  0
   21.3934   -4.1440    0.0000 O   0  0  0  0  0  0  0  0  0  0  0  0
   22.6046   -6.4439    0.0000 N   0  0  0  0  0  0  0  0  0  0  0  0
   22.5461   -7.9449    0.0000 C   0  0  0  0  0  0  0  0  0  0  0  0
   23.8156   -8.7437    0.0000 C   0  0  0  0  0  0  0  0  0  0  0  0
   25.1436   -8.0416    0.0000 C   0  0  0  0  0  0  0  0  0  0  0  0
   26.4130   -8.8405    0.0000 C   0  0  0  0  0  0  0  0  0  0  0  0
   26.3546  -10.3415    0.0000 C   0  0  0  0  0  0  0  0  0  0  0  0
   25.0267  -11.0436    0.0000 C   0  0  0  0  0  0  0  0  0  0  0  0
   23.7571  -10.2448    0.0000 C   0  0  0  0  0  0  0  0  0  0  0  0
   18.6874   -5.6530    0.0000 C   0  0  0  0  0  0  0  0  0  0  0  0
   14.7646   -6.2541    0.0000 C   0  0  0  0  0  0  0  0  0  0  0  0
   13.4953   -5.4552    0.0000 C   0  0  0  0  0  0  0  0  0  0  0  0
   12.1673   -6.1573    0.0000 N   0  0  0  0  0  0  0  0  0  0  0  0
   10.8978   -5.3585    0.0000 C   0  0  0  0  0  0  0  0  0  0  0  0
   10.9563   -3.8574    0.0000 O   0  0  0  0  0  0  0  0  0  0  0  0
    9.5698   -6.0606    0.0000 O   0  0  0  0  0  0  0  0  0  0  0  0
    8.3004   -5.2617    0.0000 C   0  0  0  0  0  0  0  0  0  0  0  0
    6.9765   -5.9575    0.0000 C   0  0  0  0  0  0  0  0  0  0  0  0
    6.9181   -7.4585    0.0000 C   0  0  0  0  0  0  0  0  0  0  0  0
    5.5942   -8.1541    0.0000 C   0  0  0  0  0  0  0  0  0  0  0  0
    4.3246   -7.3555    0.0000 C   0  0  0  0  0  0  0  0  0  0  0  0
    4.3792   -5.8608    0.0000 C   0  0  0  0  0  0  0  0  0  0  0  0
    5.7069   -5.1587    0.0000 C   0  0  0  0  0  0  0  0  0  0  0  0
   16.0913   -5.5541    0.0000 C   0  0  0  0  0  0  0  0  0  0  0  0
   17.3607   -6.3530    0.0000 C   0  0  0  0  0  0  0  0  0  0  0  0
   18.6861   -4.1531    0.0000 C   0  0  0  0  0  0  0  0  0  0  0  0
   19.9844   -3.4020    0.0000 O   0  0  0  0  0  0  0  0  0  0  0  0
   17.3865   -3.4042    0.0000 N   0  0  0  0  0  0  0  0  0  0  0  0
   17.3852   -1.9043    0.0000 O   0  0  0  0  0  0  0  0  0  0  0  0
  8  9  1  0  0  0  0
  9 10  2  0  0  0  0
 10 11  1  0  0  0  0
  6 11  2  0  0  0  0
  4  5  1  0  0  0  0
 12  1  1  0  0  0  0
 13 14  1  0  0  0  0
 16 17  2  0  0  0  0
 19 20  1  0  0  0  0
 20 21  1  0  0  0  0
 21 22  2  0  0  0  0
 22 23  1  0  0  0  0
 23 24  2  0  0  0  0
 24 25  1  0  0  0  0
 20 25  2  0  0  0  0
 18 19  1  0  0  0  0
 16 18  1  0  0  0  0
 15 16  1  0  0  0  0
 14 15  1  0  0  0  0
  1  2  1  0  0  0  0
 13 26  1  0  0  0  0
  2  3  2  0  0  0  0
 26 27  1  0  0  0  0
 12 27  1  1  0  0  0
  2  4  1  0  0  0  0
 12 28  1  0  0  0  0
  5  6  1  0  0  0  0
 28 29  2  0  0  0  0
  6  7  1  0  0  0  0
 28 30  1  0  0  0  0
  7  8  2  0  0  0  0
 30 31  1  0  0  0  0
M  END
> <Value>
4.785156151952302

> <Relation>
=

> <SourceURI>
mol:CHEMBL1643413

$$$$

Generated by Molecular Materials Informatics

 32 33  0  0  0  0  0  0  0  0999 V2000
    5.8235  -13.9473    0.0000 N   0  0  0  0  0  0  0  0  0  0  0  0
    7.1515  -13.2451    0.0000 C   0  0  0  0  0  0  0  0  0  0  0  0
    7.2098  -11.7440    0.0000 O   0  0  0  0  0  0  0  0  0  0  0  0
    8.4211  -14.0440    0.0000 N   0  0  0  0  0  0  0  0  0  0  0  0
    4.5037  -13.2531    0.0000 C   0  0  0  0  0  0  0  0  0  0  0  0
    0.5808  -13.8542    0.0000 C   0  0  0  0  0  0  0  0  0  0  0  0
   -0.6887  -13.0553    0.0000 C   0  0  0  0  0  0  0  0  0  0  0  0
   -2.0167  -13.7575    0.0000 N   0  0  0  0  0  0  0  0  0  0  0  0
   -3.2863  -12.9586    0.0000 C   0  0  0  0  0  0  0  0  0  0  0  0
   -3.2278  -11.4575    0.0000 O   0  0  0  0  0  0  0  0  0  0  0  0
   -4.6143  -13.6608    0.0000 O   0  0  0  0  0  0  0  0  0  0  0  0
   -5.8838  -12.8618    0.0000 C   0  0  0  0  0  0  0  0  0  0  0  0
   -7.2078  -13.5577    0.0000 C   0  0  0  0  0  0  0  0  0  0  0  0
   -7.2662  -15.0588    0.0000 C   0  0  0  0  0  0  0  0  0  0  0  0
   -8.5902  -15.7544    0.0000 C   0  0  0  0  0  0  0  0  0  0  0  0
   -9.8598  -14.9557    0.0000 C   0  0  0  0  0  0  0  0  0  0  0  0
   -9.8052  -13.4609    0.0000 C   0  0  0  0  0  0  0  0  0  0  0  0
   -8.4774  -12.7588    0.0000 C   0  0  0  0  0  0  0  0  0  0  0  0
    1.9075  -13.1542    0.0000 C   0  0  0  0  0  0  0  0  0  0  0  0
    3.1769  -13.9531    0.0000 C   0  0  0  0  0  0  0  0  0  0  0  0
    4.5024  -11.7531    0.0000 C   0  0  0  0  0  0  0  0  0  0  0  0
    5.8007  -11.0020    0.0000 O   0  0  0  0  0  0  0  0  0  0  0  0
    3.2027  -11.0042    0.0000 N   0  0  0  0  0  0  0  0  0  0  0  0
    3.2015   -9.5042    0.0000 O   0  0  0  0  0  0  0  0  0  0  0  0
    9.7477  -13.3440    0.0000 C   0  0  0  0  0  0  0  0  0  0  0  0
   11.0173  -14.1429    0.0000 C   0  0  0  0  0  0  0  0  0  0  0  0
   12.3438  -13.4429    0.0000 C   0  0  0  0  0  0  0  0  0  0  0  0
   13.6077  -14.2486    0.0000 C   0  0  0  0  0  0  0  0  0  0  0  0
   14.9333  -13.5497    0.0000 C   0  0  0  0  0  0  0  0  0  0  0  0
   14.9913  -12.0493    0.0000 C   0  0  0  0  0  0  0  0  0  0  0  0
   13.7126  -11.2502    0.0000 C   0  0  0  0  0  0  0  0  0  0  0  0
   12.3922  -11.9537    0.0000 C   0  0  0  0  0  0  0  0  0  0  0  0
 11 12  1  0  0  0  0
  9 11  1  0  0  0  0
  8  9  1  0  0  0  0
  7  8  1  0  0  0  0
  6 19  1  0  0  0  0
  5  1  1  0  0  0  0
 19 20  1  0  0  0  0
  5 20  1  1  0  0  0
  1  2  1  0  0  0  0
  5 21  1  0  0  0  0
  2  3  2  0  0  0  0
 21 22  2  0  0  0  0
  2  4  1  0  0  0  0
 21 23  1  0  0  0  0
  6  7  1  0  0  0  0
 23 24  1  0  0  0  0
  9 10  2  0  0  0  0
  4 25  1  0  0  0  0
 12 13  1  0  0  0  0
 25 26  1  0  0  0  0
 13 14  1  0  0  0  0
 26 27  1  0  0  0  0
 14 15  2  0  0  0  0
 27 28  2  0  0  0  0
 15 16  1  0  0  0  0
 28 29  1  0  0  0  0
 16 17  2  0  0  0  0
 29 30  2  0  0  0  0
 17 18  1  0  0  0  0
 30 31  1  0  0  0  0
 13 18  2  0  0  0  0
 31 32  2  0  0  0  0
 32 27  1  0  0  0  0
M  END
> <Value>
4.301029995663981

> <Relation>
<

> <SourceURI>
mol:CHEMBL1643414

$$$$

Generated by Molecular Materials Informatics

 28 28  0  0  0  0  0  0  0  0999 V2000
    7.6715  -21.2765    0.0000 N   0  0  0  0  0  0  0  0  0  0  0  0
    8.9995  -20.5744    0.0000 C   0  0  0  0  0  0  0  0  0  0  0  0
    9.0580  -19.0733    0.0000 O   0  0  0  0  0  0  0  0  0  0  0  0
   10.2691  -21.3733    0.0000 N   0  0  0  0  0  0  0  0  0  0  0  0
    6.3516  -20.5822    0.0000 C   0  0  0  0  0  0  0  0  0  0  0  0
    2.4289  -21.1835    0.0000 C   0  0  0  0  0  0  0  0  0  0  0  0
    1.1592  -20.3845    0.0000 C   0  0  0  0  0  0  0  0  0  0  0  0
   -0.1688  -21.0867    0.0000 N   0  0  0  0  0  0  0  0  0  0  0  0
   -1.4382  -20.2878    0.0000 C   0  0  0  0  0  0  0  0  0  0  0  0
   -1.3799  -18.7867    0.0000 O   0  0  0  0  0  0  0  0  0  0  0  0
   -2.7662  -20.9900    0.0000 O   0  0  0  0  0  0  0  0  0  0  0  0
   -4.0359  -20.1911    0.0000 C   0  0  0  0  0  0  0  0  0  0  0  0
   -5.3599  -20.8869    0.0000 C   0  0  0  0  0  0  0  0  0  0  0  0
   -5.4183  -22.3878    0.0000 C   0  0  0  0  0  0  0  0  0  0  0  0
   -6.7423  -23.0837    0.0000 C   0  0  0  0  0  0  0  0  0  0  0  0
   -8.0117  -22.2847    0.0000 C   0  0  0  0  0  0  0  0  0  0  0  0
   -7.9574  -20.7902    0.0000 C   0  0  0  0  0  0  0  0  0  0  0  0
   -6.6294  -20.0880    0.0000 C   0  0  0  0  0  0  0  0  0  0  0  0
    3.7554  -20.4835    0.0000 C   0  0  0  0  0  0  0  0  0  0  0  0
    5.0251  -21.2822    0.0000 C   0  0  0  0  0  0  0  0  0  0  0  0
    6.3504  -19.0822    0.0000 C   0  0  0  0  0  0  0  0  0  0  0  0
    7.6487  -18.3311    0.0000 O   0  0  0  0  0  0  0  0  0  0  0  0
    5.0507  -18.3333    0.0000 N   0  0  0  0  0  0  0  0  0  0  0  0
    5.0494  -16.8332    0.0000 O   0  0  0  0  0  0  0  0  0  0  0  0
   11.5957  -20.6733    0.0000 C   0  0  0  0  0  0  0  0  0  0  0  0
   12.8653  -21.4722    0.0000 C   0  0  0  0  0  0  0  0  0  0  0  0
   11.6528  -19.1744    0.0000 C   0  0  0  0  0  0  0  0  0  0  0  0
   12.8851  -19.9127    0.0000 C   0  0  0  0  0  0  0  0  0  0  0  0
 15 16  1  0  0  0  0
 16 17  2  0  0  0  0
 17 18  1  0  0  0  0
 13 18  2  0  0  0  0
 11 12  1  0  0  0  0
  9 11  1  0  0  0  0
  8  9  1  0  0  0  0
  7  8  1  0  0  0  0
  6 19  1  0  0  0  0
  5  1  1  0  0  0  0
 19 20  1  0  0  0  0
  5 20  1  1  0  0  0
  1  2  1  0  0  0  0
  5 21  1  0  0  0  0
  2  3  2  0  0  0  0
 21 22  2  0  0  0  0
  2  4  1  0  0  0  0
 21 23  1  0  0  0  0
  6  7  1  0  0  0  0
 23 24  1  0  0  0  0
  9 10  2  0  0  0  0
  4 25  1  0  0  0  0
 12 13  1  0  0  0  0
 25 26  1  0  0  0  0
 13 14  1  0  0  0  0
 25 27  1  0  0  0  0
 14 15  2  0  0  0  0
 25 28  1  0  0  0  0
M  END
> <Value>
4.301029995663981

> <Relation>
<

> <SourceURI>
mol:CHEMBL1643415

$$$$

Generated by Molecular Materials Informatics

 29 29  0  0  0  0  0  0  0  0999 V2000
    5.4210   -1.7057    0.0000 N   0  0  0  0  0  0  0  0  0  0  0  0
    6.7490   -1.0036    0.0000 C   0  0  0  0  0  0  0  0  0  0  0  0
    6.8073    0.4975    0.0000 O   0  0  0  0  0  0  0  0  0  0  0  0
    8.0186   -1.8023    0.0000 N   0  0  0  0  0  0  0  0  0  0  0  0
    4.1012   -1.0114    0.0000 C   0  0  0  0  0  0  0  0  0  0  0  0
    0.1783   -1.6125    0.0000 C   0  0  0  0  0  0  0  0  0  0  0  0
   -1.0912   -0.8136    0.0000 C   0  0  0  0  0  0  0  0  0  0  0  0
   -2.4192   -1.5157    0.0000 N   0  0  0  0  0  0  0  0  0  0  0  0
   -3.6888   -0.7170    0.0000 C   0  0  0  0  0  0  0  0  0  0  0  0
   -3.6303    0.7841    0.0000 O   0  0  0  0  0  0  0  0  0  0  0  0
   -5.0168   -1.4190    0.0000 O   0  0  0  0  0  0  0  0  0  0  0  0
   -6.2863   -0.6203    0.0000 C   0  0  0  0  0  0  0  0  0  0  0  0
   -7.6103   -1.3159    0.0000 C   0  0  0  0  0  0  0  0  0  0  0  0
   -7.6686   -2.8170    0.0000 C   0  0  0  0  0  0  0  0  0  0  0  0
   -8.9926   -3.5128    0.0000 C   0  0  0  0  0  0  0  0  0  0  0  0
  -10.2623   -2.7139    0.0000 C   0  0  0  0  0  0  0  0  0  0  0  0
  -10.2077   -1.2192    0.0000 C   0  0  0  0  0  0  0  0  0  0  0  0
   -8.8799   -0.5170    0.0000 C   0  0  0  0  0  0  0  0  0  0  0  0
    1.5050   -0.9125    0.0000 C   0  0  0  0  0  0  0  0  0  0  0  0
    2.7744   -1.7114    0.0000 C   0  0  0  0  0  0  0  0  0  0  0  0
    4.0999    0.4886    0.0000 C   0  0  0  0  0  0  0  0  0  0  0  0
    5.3983    1.2397    0.0000 O   0  0  0  0  0  0  0  0  0  0  0  0
    2.8003    1.2375    0.0000 O   0  0  0  0  0  0  0  0  0  0  0  0
    2.7990    2.7375    0.0000 C   0  0  0  0  0  0  0  0  0  0  0  0
    9.3452   -1.1023    0.0000 C   0  0  0  0  0  0  0  0  0  0  0  0
   10.6148   -1.9012    0.0000 C   0  0  0  0  0  0  0  0  0  0  0  0
   10.5577   -3.4001    0.0000 O   0  0  0  0  0  0  0  0  0  0  0  0
   11.9413   -1.2012    0.0000 O   0  0  0  0  0  0  0  0  0  0  0  0
   13.2110   -2.0001    0.0000 C   0  0  0  0  0  0  0  0  0  0  0  0
 16 17  2  0  0  0  0
 17 18  1  0  0  0  0
 13 18  2  0  0  0  0
 11 12  1  0  0  0  0
  9 11  1  0  0  0  0
  8  9  1  0  0  0  0
  7  8  1  0  0  0  0
  6 19  1  0  0  0  0
  5  1  1  0  0  0  0
 19 20  1  0  0  0  0
  5 20  1  1  0  0  0
  1  2  1  0  0  0  0
  5 21  1  0  0  0  0
  2  3  2  0  0  0  0
 21 22  2  0  0  0  0
  2  4  1  0  0  0  0
 21 23  1  0  0  0  0
  6  7  1  0  0  0  0
 23 24  1  0  0  0  0
  9 10  2  0  0  0  0
  4 25  1  0  0  0  0
 12 13  1  0  0  0  0
 25 26  1  0  0  0  0
 13 14  1  0  0  0  0
 26 27  2  0  0  0  0
 14 15  2  0  0  0  0
 26 28  1  0  0  0  0
 15 16  1  0  0  0  0
 28 29  1  0  0  0  0
M  END
> <Value>
4.301029995663981

> <Relation>
<

> <SourceURI>
mol:CHEMBL1643416

$$$$

Generated by Molecular Materials Informatics

 30 30  0  0  0  0  0  0  0  0999 V2000
   21.6876   -1.1515    0.0000 N   0  0  0  0  0  0  0  0  0  0  0  0
   23.0156   -0.4493    0.0000 C   0  0  0  0  0  0  0  0  0  0  0  0
   23.0740    1.0517    0.0000 O   0  0  0  0  0  0  0  0  0  0  0  0
   24.2850   -1.2482    0.0000 N   0  0  0  0  0  0  0  0  0  0  0  0
   20.3678   -0.4572    0.0000 C   0  0  0  0  0  0  0  0  0  0  0  0
   16.4450   -1.0584    0.0000 C   0  0  0  0  0  0  0  0  0  0  0  0
   15.1754   -0.2595    0.0000 C   0  0  0  0  0  0  0  0  0  0  0  0
   13.8475   -0.9617    0.0000 N   0  0  0  0  0  0  0  0  0  0  0  0
   12.5780   -0.1628    0.0000 C   0  0  0  0  0  0  0  0  0  0  0  0
   12.6364    1.3383    0.0000 O   0  0  0  0  0  0  0  0  0  0  0  0
   11.2501   -0.8650    0.0000 O   0  0  0  0  0  0  0  0  0  0  0  0
    9.9805   -0.0661    0.0000 C   0  0  0  0  0  0  0  0  0  0  0  0
    8.6567   -0.7619    0.0000 C   0  0  0  0  0  0  0  0  0  0  0  0
    8.5981   -2.2628    0.0000 C   0  0  0  0  0  0  0  0  0  0  0  0
    7.2743   -2.9586    0.0000 C   0  0  0  0  0  0  0  0  0  0  0  0
    6.0047   -2.1597    0.0000 C   0  0  0  0  0  0  0  0  0  0  0  0
    6.0591   -0.6652    0.0000 C   0  0  0  0  0  0  0  0  0  0  0  0
    7.3871    0.0370    0.0000 C   0  0  0  0  0  0  0  0  0  0  0  0
   17.7715   -0.3584    0.0000 C   0  0  0  0  0  0  0  0  0  0  0  0
   19.0412   -1.1571    0.0000 C   0  0  0  0  0  0  0  0  0  0  0  0
   20.3666    1.0428    0.0000 C   0  0  0  0  0  0  0  0  0  0  0  0
   21.6649    1.7939    0.0000 O   0  0  0  0  0  0  0  0  0  0  0  0
   19.0668    1.7917    0.0000 O   0  0  0  0  0  0  0  0  0  0  0  0
   19.0655    3.2917    0.0000 C   0  0  0  0  0  0  0  0  0  0  0  0
   25.6117   -0.5483    0.0000 C   0  0  0  0  0  0  0  0  0  0  0  0
   26.8812   -1.3471    0.0000 C   0  0  0  0  0  0  0  0  0  0  0  0
   25.6688    0.9506    0.0000 C   0  0  0  0  0  0  0  0  0  0  0  0
   26.8241   -2.8460    0.0000 O   0  0  0  0  0  0  0  0  0  0  0  0
   28.2078   -0.6470    0.0000 O   0  0  0  0  0  0  0  0  0  0  0  0
   29.4773   -1.4459    0.0000 C   0  0  0  0  0  0  0  0  0  0  0  0
 17 18  1  0  0  0  0
 13 18  2  0  0  0  0
 11 12  1  0  0  0  0
  9 11  1  0  0  0  0
  8  9  1  0  0  0  0
  7  8  1  0  0  0  0
  6 19  1  0  0  0  0
  5  1  1  0  0  0  0
 19 20  1  0  0  0  0
  5 20  1  1  0  0  0
  1  2  1  0  0  0  0
  5 21  1  0  0  0  0
  2  3  2  0  0  0  0
 21 22  2  0  0  0  0
  2  4  1  0  0  0  0
 21 23  1  0  0  0  0
  6  7  1  0  0  0  0
 23 24  1  0  0  0  0
  9 10  2  0  0  0  0
  4 25  1  0  0  0  0
 12 13  1  0  0  0  0
 25 26  1  0  0  0  0
 13 14  1  0  0  0  0
 25 27  1  1  0  0  0
 14 15  2  0  0  0  0
 26 28  2  0  0  0  0
 15 16  1  0  0  0  0
 26 29  1  0  0  0  0
 16 17  2  0  0  0  0
 29 30  1  0  0  0  0
M  END
> <Value>
4.301029995663981

> <Relation>
<

> <SourceURI>
mol:CHEMBL1643417

$$$$

Generated by Molecular Materials Informatics

 32 32  0  0  0  0  0  0  0  0999 V2000
    6.5335   -7.8098    0.0000 N   0  0  0  0  0  0  0  0  0  0  0  0
    7.8615   -7.1076    0.0000 C   0  0  0  0  0  0  0  0  0  0  0  0
    7.9198   -5.6065    0.0000 O   0  0  0  0  0  0  0  0  0  0  0  0
    9.1311   -7.9065    0.0000 N   0  0  0  0  0  0  0  0  0  0  0  0
    5.2137   -7.1156    0.0000 C   0  0  0  0  0  0  0  0  0  0  0  0
    1.2908   -7.7167    0.0000 C   0  0  0  0  0  0  0  0  0  0  0  0
    0.0213   -6.9178    0.0000 C   0  0  0  0  0  0  0  0  0  0  0  0
   -1.3067   -7.6200    0.0000 N   0  0  0  0  0  0  0  0  0  0  0  0
   -2.5763   -6.8211    0.0000 C   0  0  0  0  0  0  0  0  0  0  0  0
   -2.5178   -5.3200    0.0000 O   0  0  0  0  0  0  0  0  0  0  0  0
   -3.9043   -7.5233    0.0000 O   0  0  0  0  0  0  0  0  0  0  0  0
   -5.1738   -6.7243    0.0000 C   0  0  0  0  0  0  0  0  0  0  0  0
   -6.4978   -7.4202    0.0000 C   0  0  0  0  0  0  0  0  0  0  0  0
   -6.5561   -8.9213    0.0000 C   0  0  0  0  0  0  0  0  0  0  0  0
   -7.8801   -9.6169    0.0000 C   0  0  0  0  0  0  0  0  0  0  0  0
   -9.1498   -8.8182    0.0000 C   0  0  0  0  0  0  0  0  0  0  0  0
   -9.0952   -7.3234    0.0000 C   0  0  0  0  0  0  0  0  0  0  0  0
   -7.7674   -6.6213    0.0000 C   0  0  0  0  0  0  0  0  0  0  0  0
    2.6175   -7.0167    0.0000 C   0  0  0  0  0  0  0  0  0  0  0  0
    3.8869   -7.8156    0.0000 C   0  0  0  0  0  0  0  0  0  0  0  0
    5.2124   -5.6156    0.0000 C   0  0  0  0  0  0  0  0  0  0  0  0
    6.5108   -4.8645    0.0000 O   0  0  0  0  0  0  0  0  0  0  0  0
    3.9128   -4.8667    0.0000 O   0  0  0  0  0  0  0  0  0  0  0  0
    3.9115   -3.3667    0.0000 C   0  0  0  0  0  0  0  0  0  0  0  0
   10.4577   -7.2065    0.0000 C   0  0  0  0  0  0  0  0  0  0  0  0
   11.7273   -8.0054    0.0000 C   0  0  0  0  0  0  0  0  0  0  0  0
   10.5148   -5.7076    0.0000 C   0  0  0  0  0  0  0  0  0  0  0  0
   11.6702   -9.5043    0.0000 O   0  0  0  0  0  0  0  0  0  0  0  0
   13.0538   -7.3054    0.0000 O   0  0  0  0  0  0  0  0  0  0  0  0
   14.3235   -8.1043    0.0000 C   0  0  0  0  0  0  0  0  0  0  0  0
   11.8413   -5.0076    0.0000 C   0  0  0  0  0  0  0  0  0  0  0  0
    9.2451   -4.9087    0.0000 C   0  0  0  0  0  0  0  0  0  0  0  0
 11 12  1  0  0  0  0
  9 11  1  0  0  0  0
  8  9  1  0  0  0  0
  7  8  1  0  0  0  0
  6 19  1  0  0  0  0
  5  1  1  0  0  0  0
 19 20  1  0  0  0  0
  5 20  1  1  0  0  0
  1  2  1  0  0  0  0
  5 21  1  0  0  0  0
  2  3  2  0  0  0  0
 21 22  2  0  0  0  0
  2  4  1  0  0  0  0
 21 23  1  0  0  0  0
  6  7  1  0  0  0  0
 23 24  1  0  0  0  0
  9 10  2  0  0  0  0
  4 25  1  0  0  0  0
 12 13  1  0  0  0  0
 25 26  1  0  0  0  0
 13 14  1  0  0  0  0
 25 27  1  1  0  0  0
 14 15  2  0  0  0  0
 26 28  2  0  0  0  0
 15 16  1  0  0  0  0
 26 29  1  0  0  0  0
 16 17  2  0  0  0  0
 29 30  1  0  0  0  0
 17 18  1  0  0  0  0
 27 31  1  0  0  0  0
 13 18  2  0  0  0  0
 27 32  1  0  0  0  0
M  END
> <Value>
4.301029995663981

> <Relation>
<

> <SourceURI>
mol:CHEMBL1643395

$$$$

Generated by Molecular Materials Informatics

 33 33  0  0  0  0  0  0  0  0999 V2000
   22.5752   -7.8307    0.0000 N   0  0  0  0  0  0  0  0  0  0  0  0
   23.9032   -7.1286    0.0000 C   0  0  0  0  0  0  0  0  0  0  0  0
   23.9616   -5.6275    0.0000 O   0  0  0  0  0  0  0  0  0  0  0  0
   25.1727   -7.9273    0.0000 N   0  0  0  0  0  0  0  0  0  0  0  0
   21.2554   -7.1364    0.0000 C   0  0  0  0  0  0  0  0  0  0  0  0
   17.3325   -7.7375    0.0000 C   0  0  0  0  0  0  0  0  0  0  0  0
   16.0629   -6.9386    0.0000 C   0  0  0  0  0  0  0  0  0  0  0  0
   14.7349   -7.6407    0.0000 N   0  0  0  0  0  0  0  0  0  0  0  0
   13.4654   -6.8420    0.0000 C   0  0  0  0  0  0  0  0  0  0  0  0
   13.5238   -5.3409    0.0000 O   0  0  0  0  0  0  0  0  0  0  0  0
   12.1374   -7.5440    0.0000 O   0  0  0  0  0  0  0  0  0  0  0  0
   10.8678   -6.7453    0.0000 C   0  0  0  0  0  0  0  0  0  0  0  0
    9.5440   -7.4409    0.0000 C   0  0  0  0  0  0  0  0  0  0  0  0
    9.4854   -8.9420    0.0000 C   0  0  0  0  0  0  0  0  0  0  0  0
    8.1616   -9.6378    0.0000 C   0  0  0  0  0  0  0  0  0  0  0  0
    6.8920   -8.8389    0.0000 C   0  0  0  0  0  0  0  0  0  0  0  0
    6.9463   -7.3442    0.0000 C   0  0  0  0  0  0  0  0  0  0  0  0
    8.2743   -6.6420    0.0000 C   0  0  0  0  0  0  0  0  0  0  0  0
   18.6590   -7.0375    0.0000 C   0  0  0  0  0  0  0  0  0  0  0  0
   19.9287   -7.8364    0.0000 C   0  0  0  0  0  0  0  0  0  0  0  0
   21.2541   -5.6364    0.0000 C   0  0  0  0  0  0  0  0  0  0  0  0
   22.5525   -4.8853    0.0000 O   0  0  0  0  0  0  0  0  0  0  0  0
   19.9543   -4.8875    0.0000 O   0  0  0  0  0  0  0  0  0  0  0  0
   19.9530   -3.3875    0.0000 C   0  0  0  0  0  0  0  0  0  0  0  0
   26.4994   -7.2273    0.0000 C   0  0  0  0  0  0  0  0  0  0  0  0
   27.7689   -8.0262    0.0000 C   0  0  0  0  0  0  0  0  0  0  0  0
   26.5565   -5.7284    0.0000 C   0  0  0  0  0  0  0  0  0  0  0  0
   27.7118   -9.5251    0.0000 O   0  0  0  0  0  0  0  0  0  0  0  0
   29.0956   -7.3262    0.0000 O   0  0  0  0  0  0  0  0  0  0  0  0
   30.3650   -8.1251    0.0000 C   0  0  0  0  0  0  0  0  0  0  0  0
   27.8830   -5.0284    0.0000 C   0  0  0  0  0  0  0  0  0  0  0  0
   27.9401   -3.5295    0.0000 C   0  0  0  0  0  0  0  0  0  0  0  0
   29.1527   -5.8273    0.0000 C   0  0  0  0  0  0  0  0  0  0  0  0
  9 11  1  0  0  0  0
  8  9  1  0  0  0  0
  7  8  1  0  0  0  0
  6 19  1  0  0  0  0
  5  1  1  0  0  0  0
 19 20  1  0  0  0  0
  5 20  1  1  0  0  0
  1  2  1  0  0  0  0
  5 21  1  0  0  0  0
  2  3  2  0  0  0  0
 21 22  2  0  0  0  0
  2  4  1  0  0  0  0
 21 23  1  0  0  0  0
  6  7  1  0  0  0  0
 23 24  1  0  0  0  0
  9 10  2  0  0  0  0
  4 25  1  0  0  0  0
 12 13  1  0  0  0  0
 25 26  1  0  0  0  0
 13 14  1  0  0  0  0
 25 27  1  1  0  0  0
 14 15  2  0  0  0  0
 26 28  2  0  0  0  0
 15 16  1  0  0  0  0
 26 29  1  0  0  0  0
 16 17  2  0  0  0  0
 29 30  1  0  0  0  0
 17 18  1  0  0  0  0
 27 31  1  0  0  0  0
 13 18  2  0  0  0  0
 31 32  1  0  0  0  0
 11 12  1  0  0  0  0
 31 33  1  0  0  0  0
M  END
> <Value>
4.301029995663981

> <Relation>
<

> <SourceURI>
mol:CHEMBL1643396

$$$$

Generated by Molecular Materials Informatics

 33 33  0  0  0  0  0  0  0  0999 V2000
    5.2750   -0.6165    0.0000 C   0  0  0  0  0  0  0  0  0  0  0  0
    5.3335    0.8846    0.0000 O   0  0  0  0  0  0  0  0  0  0  0  0
    6.5446   -1.4154    0.0000 N   0  0  0  0  0  0  0  0  0  0  0  0
    2.6214   -0.6196    0.0000 C   0  0  0  0  0  0  0  0  0  0  0  0
   -1.3013   -1.2207    0.0000 C   0  0  0  0  0  0  0  0  0  0  0  0
   -2.5709   -0.4218    0.0000 C   0  0  0  0  0  0  0  0  0  0  0  0
   -5.1634   -0.3309    0.0000 C   0  0  0  0  0  0  0  0  0  0  0  0
   -5.1050    1.1702    0.0000 O   0  0  0  0  0  0  0  0  0  0  0  0
   -6.4914   -1.0330    0.0000 O   0  0  0  0  0  0  0  0  0  0  0  0
   -7.7610   -0.2342    0.0000 C   0  0  0  0  0  0  0  0  0  0  0  0
   -9.0848   -0.9300    0.0000 C   0  0  0  0  0  0  0  0  0  0  0  0
   -9.1433   -2.4310    0.0000 C   0  0  0  0  0  0  0  0  0  0  0  0
  -10.4673   -3.1266    0.0000 C   0  0  0  0  0  0  0  0  0  0  0  0
  -11.7368   -2.3278    0.0000 C   0  0  0  0  0  0  0  0  0  0  0  0
  -11.6824   -0.8332    0.0000 C   0  0  0  0  0  0  0  0  0  0  0  0
  -10.3544   -0.1311    0.0000 C   0  0  0  0  0  0  0  0  0  0  0  0
    0.0252   -0.5207    0.0000 C   0  0  0  0  0  0  0  0  0  0  0  0
    1.2948   -1.3196    0.0000 C   0  0  0  0  0  0  0  0  0  0  0  0
    2.6201    0.8804    0.0000 C   0  0  0  0  0  0  0  0  0  0  0  0
    3.9186    1.6315    0.0000 O   0  0  0  0  0  0  0  0  0  0  0  0
    1.3205    1.6293    0.0000 O   0  0  0  0  0  0  0  0  0  0  0  0
    1.3192    3.1292    0.0000 C   0  0  0  0  0  0  0  0  0  0  0  0
    7.8713   -0.7154    0.0000 C   0  0  0  0  0  0  0  0  0  0  0  0
    9.1407   -1.5143    0.0000 C   0  0  0  0  0  0  0  0  0  0  0  0
    9.0836   -3.0132    0.0000 O   0  0  0  0  0  0  0  0  0  0  0  0
   10.4674   -0.8143    0.0000 O   0  0  0  0  0  0  0  0  0  0  0  0
   11.7369   -1.6132    0.0000 C   0  0  0  0  0  0  0  0  0  0  0  0
    7.9282    0.7835    0.0000 C   0  0  0  0  0  0  0  0  0  0  0  0
    9.2549    1.4835    0.0000 C   0  0  0  0  0  0  0  0  0  0  0  0
    6.6588    1.5824    0.0000 C   0  0  0  0  0  0  0  0  0  0  0  0
   10.5245    0.6846    0.0000 C   0  0  0  0  0  0  0  0  0  0  0  0
   -3.8936   -1.1292    0.0000 N   0  0  0  0  0  0  0  0  0  0  0  0
    3.9490   -1.3178    0.0000 N   0  0  0  0  0  0  0  0  0  0  0  0
  1  2  2  0  0  0  0
  1  3  1  0  0  0  0
  5  6  1  0  0  0  0
  7  8  2  0  0  0  0
 10 11  1  0  0  0  0
 11 12  1  0  0  0  0
 12 13  2  0  0  0  0
 13 14  1  0  0  0  0
 14 15  2  0  0  0  0
 15 16  1  0  0  0  0
 11 16  2  0  0  0  0
  9 10  1  0  0  0  0
  7  9  1  0  0  0  0
  5 17  1  0  0  0  0
 17 18  1  0  0  0  0
  4 18  1  1  0  0  0
  4 19  1  0  0  0  0
 19 20  2  0  0  0  0
 19 21  1  0  0  0  0
 21 22  1  0  0  0  0
 23  3  1  1  0  0  0
 23 24  1  0  0  0  0
 24 25  2  0  0  0  0
 24 26  1  0  0  0  0
 26 27  1  0  0  0  0
 23 28  1  0  0  0  0
 28 29  1  0  0  0  0
 28 30  1  6  0  0  0
 29 31  1  0  0  0  0
  7 32  1  0  0  0  0
  6 32  1  0  0  0  0
  1 33  1  0  0  0  0
  4 33  1  0  0  0  0
M  END
> <Value>
4.301029995663981

> <Relation>
<

> <SourceURI>
mol:CHEMBL1643397

$$$$

Generated by Molecular Materials Informatics

 36 37  0  0  0  0  0  0  0  0999 V2000
   24.8125  -13.0462    0.0000 N   0  0  0  0  0  0  0  0  0  0  0  0
   26.1405  -12.3440    0.0000 C   0  0  0  0  0  0  0  0  0  0  0  0
   26.1989  -10.8429    0.0000 O   0  0  0  0  0  0  0  0  0  0  0  0
   27.4100  -13.1429    0.0000 N   0  0  0  0  0  0  0  0  0  0  0  0
   23.4927  -12.3520    0.0000 C   0  0  0  0  0  0  0  0  0  0  0  0
   19.5698  -12.9531    0.0000 C   0  0  0  0  0  0  0  0  0  0  0  0
   18.3001  -12.1542    0.0000 C   0  0  0  0  0  0  0  0  0  0  0  0
   16.9721  -12.8564    0.0000 N   0  0  0  0  0  0  0  0  0  0  0  0
   15.7027  -12.0575    0.0000 C   0  0  0  0  0  0  0  0  0  0  0  0
   15.7611  -10.5564    0.0000 O   0  0  0  0  0  0  0  0  0  0  0  0
   14.3747  -12.7597    0.0000 O   0  0  0  0  0  0  0  0  0  0  0  0
   13.1051  -11.9608    0.0000 C   0  0  0  0  0  0  0  0  0  0  0  0
   11.7812  -12.6566    0.0000 C   0  0  0  0  0  0  0  0  0  0  0  0
   11.7227  -14.1577    0.0000 C   0  0  0  0  0  0  0  0  0  0  0  0
   10.3989  -14.8533    0.0000 C   0  0  0  0  0  0  0  0  0  0  0  0
    9.1292  -14.0546    0.0000 C   0  0  0  0  0  0  0  0  0  0  0  0
    9.1836  -12.5598    0.0000 C   0  0  0  0  0  0  0  0  0  0  0  0
   10.5116  -11.8577    0.0000 C   0  0  0  0  0  0  0  0  0  0  0  0
   20.8963  -12.2531    0.0000 C   0  0  0  0  0  0  0  0  0  0  0  0
   22.1660  -13.0520    0.0000 C   0  0  0  0  0  0  0  0  0  0  0  0
   23.4914  -10.8520    0.0000 C   0  0  0  0  0  0  0  0  0  0  0  0
   24.7898  -10.1009    0.0000 O   0  0  0  0  0  0  0  0  0  0  0  0
   22.1916  -10.1031    0.0000 O   0  0  0  0  0  0  0  0  0  0  0  0
   22.1903   -8.6031    0.0000 C   0  0  0  0  0  0  0  0  0  0  0  0
   28.7367  -12.4429    0.0000 C   0  0  0  0  0  0  0  0  0  0  0  0
   30.0061  -13.2418    0.0000 C   0  0  0  0  0  0  0  0  0  0  0  0
   29.9491  -14.7408    0.0000 O   0  0  0  0  0  0  0  0  0  0  0  0
   31.3329  -12.5418    0.0000 O   0  0  0  0  0  0  0  0  0  0  0  0
   32.6023  -13.3408    0.0000 C   0  0  0  0  0  0  0  0  0  0  0  0
   28.7938  -10.9440    0.0000 C   0  0  0  0  0  0  0  0  0  0  0  0
   30.1203  -10.2440    0.0000 C   0  0  0  0  0  0  0  0  0  0  0  0
   31.3863  -11.0506    0.0000 C   0  0  0  0  0  0  0  0  0  0  0  0
   32.7120  -10.3518    0.0000 C   0  0  0  0  0  0  0  0  0  0  0  0
   32.7700   -8.8513    0.0000 C   0  0  0  0  0  0  0  0  0  0  0  0
   31.4912   -8.0524    0.0000 C   0  0  0  0  0  0  0  0  0  0  0  0
   30.1707   -8.7557    0.0000 C   0  0  0  0  0  0  0  0  0  0  0  0
  6 19  1  0  0  0  0
  5  1  1  0  0  0  0
 19 20  1  0  0  0  0
  5 20  1  1  0  0  0
  1  2  1  0  0  0  0
  5 21  1  0  0  0  0
  2  3  2  0  0  0  0
 21 22  2  0  0  0  0
  2  4  1  0  0  0  0
 21 23  1  0  0  0  0
  6  7  1  0  0  0  0
 23 24  1  0  0  0  0
  9 10  2  0  0  0  0
  4 25  1  0  0  0  0
 12 13  1  0  0  0  0
 25 26  1  0  0  0  0
 13 14  1  0  0  0  0
 26 27  2  0  0  0  0
 14 15  2  0  0  0  0
 26 28  1  0  0  0  0
 15 16  1  0  0  0  0
 28 29  1  0  0  0  0
 16 17  2  0  0  0  0
 25 30  1  1  0  0  0
 17 18  1  0  0  0  0
 30 31  1  0  0  0  0
 13 18  2  0  0  0  0
 31 32  2  0  0  0  0
 11 12  1  0  0  0  0
 32 33  1  0  0  0  0
  9 11  1  0  0  0  0
 33 34  2  0  0  0  0
  8  9  1  0  0  0  0
 34 35  1  0  0  0  0
  7  8  1  0  0  0  0
 35 36  2  0  0  0  0
 36 31  1  0  0  0  0
M  END
> <Value>
4.301029995663981

> <Relation>
<

> <SourceURI>
mol:CHEMBL1643398

$$$$

Generated by Molecular Materials Informatics

 33 33  0  0  0  0  0  0  0  0999 V2000
    5.4460  -19.1353    0.0000 N   0  0  0  0  0  0  0  0  0  0  0  0
    6.7740  -18.4332    0.0000 C   0  0  0  0  0  0  0  0  0  0  0  0
    6.8323  -16.9321    0.0000 O   0  0  0  0  0  0  0  0  0  0  0  0
    8.0436  -19.2321    0.0000 N   0  0  0  0  0  0  0  0  0  0  0  0
    4.1262  -18.4412    0.0000 C   0  0  0  0  0  0  0  0  0  0  0  0
    0.2033  -19.0423    0.0000 C   0  0  0  0  0  0  0  0  0  0  0  0
   -1.0662  -18.2433    0.0000 C   0  0  0  0  0  0  0  0  0  0  0  0
   -2.3942  -18.9455    0.0000 N   0  0  0  0  0  0  0  0  0  0  0  0
   -3.6638  -18.1466    0.0000 C   0  0  0  0  0  0  0  0  0  0  0  0
   -3.6053  -16.6455    0.0000 O   0  0  0  0  0  0  0  0  0  0  0  0
   -4.9918  -18.8488    0.0000 O   0  0  0  0  0  0  0  0  0  0  0  0
   -6.2613  -18.0499    0.0000 C   0  0  0  0  0  0  0  0  0  0  0  0
   -7.5853  -18.7457    0.0000 C   0  0  0  0  0  0  0  0  0  0  0  0
   -7.6436  -20.2468    0.0000 C   0  0  0  0  0  0  0  0  0  0  0  0
   -8.9676  -20.9424    0.0000 C   0  0  0  0  0  0  0  0  0  0  0  0
  -10.2373  -20.1437    0.0000 C   0  0  0  0  0  0  0  0  0  0  0  0
  -10.1827  -18.6490    0.0000 C   0  0  0  0  0  0  0  0  0  0  0  0
   -8.8549  -17.9468    0.0000 C   0  0  0  0  0  0  0  0  0  0  0  0
    1.5300  -18.3423    0.0000 C   0  0  0  0  0  0  0  0  0  0  0  0
    2.7994  -19.1412    0.0000 C   0  0  0  0  0  0  0  0  0  0  0  0
    4.1249  -16.9412    0.0000 C   0  0  0  0  0  0  0  0  0  0  0  0
    5.4233  -16.1901    0.0000 O   0  0  0  0  0  0  0  0  0  0  0  0
    2.8253  -16.1923    0.0000 O   0  0  0  0  0  0  0  0  0  0  0  0
    2.8240  -14.6923    0.0000 C   0  0  0  0  0  0  0  0  0  0  0  0
    9.3702  -18.5321    0.0000 C   0  0  0  0  0  0  0  0  0  0  0  0
   10.6398  -19.3310    0.0000 C   0  0  0  0  0  0  0  0  0  0  0  0
   10.5827  -20.8299    0.0000 O   0  0  0  0  0  0  0  0  0  0  0  0
   11.9663  -18.6310    0.0000 O   0  0  0  0  0  0  0  0  0  0  0  0
   13.2360  -19.4299    0.0000 C   0  0  0  0  0  0  0  0  0  0  0  0
    9.4272  -17.0332    0.0000 C   0  0  0  0  0  0  0  0  0  0  0  0
   10.7538  -16.3332    0.0000 C   0  0  0  0  0  0  0  0  0  0  0  0
   10.8109  -14.8343    0.0000 S   0  0  0  0  0  0  0  0  0  0  0  0
   12.1376  -14.1343    0.0000 C   0  0  0  0  0  0  0  0  0  0  0  0
  9 11  1  0  0  0  0
  8  9  1  0  0  0  0
  7  8  1  0  0  0  0
  6 19  1  0  0  0  0
  5  1  1  0  0  0  0
 19 20  1  0  0  0  0
  5 20  1  1  0  0  0
  1  2  1  0  0  0  0
  5 21  1  0  0  0  0
  2  3  2  0  0  0  0
 21 22  2  0  0  0  0
  2  4  1  0  0  0  0
 21 23  1  0  0  0  0
  6  7  1  0  0  0  0
 23 24  1  0  0  0  0
  9 10  2  0  0  0  0
 25  4  1  0  0  0  0
 12 13  1  0  0  0  0
 25 26  1  0  0  0  0
 13 14  1  0  0  0  0
 26 27  2  0  0  0  0
 14 15  2  0  0  0  0
 26 28  1  0  0  0  0
 15 16  1  0  0  0  0
 28 29  1  0  0  0  0
 16 17  2  0  0  0  0
 25 30  1  1  0  0  0
 17 18  1  0  0  0  0
 30 31  1  0  0  0  0
 13 18  2  0  0  0  0
 31 32  1  0  0  0  0
 11 12  1  0  0  0  0
 32 33  1  0  0  0  0
M  END
> <Value>
4.301029995663981

> <Relation>
<

> <SourceURI>
mol:CHEMBL1643399

$$$$

Generated by Molecular Materials Informatics

 27 27  0  0  0  0  0  0  0  0999 V2000
    5.5692   -0.8812    0.0000 N   0  0  0  0  0  0  0  0  0  0  0  0
    6.8972   -0.1790    0.0000 C   0  0  0  0  0  0  0  0  0  0  0  0
    6.9555    1.3220    0.0000 O   0  0  0  0  0  0  0  0  0  0  0  0
    8.1668   -0.9778    0.0000 N   0  0  0  0  0  0  0  0  0  0  0  0
    4.2493   -0.1869    0.0000 C   0  0  0  0  0  0  0  0  0  0  0  0
    0.3264   -0.7880    0.0000 C   0  0  0  0  0  0  0  0  0  0  0  0
   -0.9430    0.0110    0.0000 C   0  0  0  0  0  0  0  0  0  0  0  0
   -2.2710   -0.6912    0.0000 N   0  0  0  0  0  0  0  0  0  0  0  0
   -3.5407    0.1075    0.0000 C   0  0  0  0  0  0  0  0  0  0  0  0
   -3.4821    1.6086    0.0000 O   0  0  0  0  0  0  0  0  0  0  0  0
   -4.8687   -0.5945    0.0000 O   0  0  0  0  0  0  0  0  0  0  0  0
   -6.1381    0.2042    0.0000 C   0  0  0  0  0  0  0  0  0  0  0  0
   -7.4621   -0.4914    0.0000 C   0  0  0  0  0  0  0  0  0  0  0  0
   -7.5205   -1.9925    0.0000 C   0  0  0  0  0  0  0  0  0  0  0  0
   -8.8445   -2.6883    0.0000 C   0  0  0  0  0  0  0  0  0  0  0  0
  -10.1141   -1.8894    0.0000 C   0  0  0  0  0  0  0  0  0  0  0  0
  -10.0596   -0.3947    0.0000 C   0  0  0  0  0  0  0  0  0  0  0  0
   -8.7318    0.3075    0.0000 C   0  0  0  0  0  0  0  0  0  0  0  0
    1.6532   -0.0880    0.0000 C   0  0  0  0  0  0  0  0  0  0  0  0
    2.9226   -0.8869    0.0000 C   0  0  0  0  0  0  0  0  0  0  0  0
    4.2481    1.3131    0.0000 C   0  0  0  0  0  0  0  0  0  0  0  0
    5.5464    2.0642    0.0000 O   0  0  0  0  0  0  0  0  0  0  0  0
    2.9484    2.0620    0.0000 O   0  0  0  0  0  0  0  0  0  0  0  0
    9.4934   -0.2778    0.0000 C   0  0  0  0  0  0  0  0  0  0  0  0
   10.7630   -1.0767    0.0000 C   0  0  0  0  0  0  0  0  0  0  0  0
   10.7059   -2.5756    0.0000 O   0  0  0  0  0  0  0  0  0  0  0  0
   12.0895   -0.3767    0.0000 O   0  0  0  0  0  0  0  0  0  0  0  0
 15 16  1  0  0  0  0
 16 17  2  0  0  0  0
 17 18  1  0  0  0  0
 13 18  2  0  0  0  0
 11 12  1  0  0  0  0
  9 11  1  0  0  0  0
  8  9  1  0  0  0  0
  7  8  1  0  0  0  0
  6 19  1  0  0  0  0
  5  1  1  0  0  0  0
 19 20  1  0  0  0  0
  5 20  1  1  0  0  0
  1  2  1  0  0  0  0
  5 21  1  0  0  0  0
  2  3  2  0  0  0  0
 21 22  2  0  0  0  0
  2  4  1  0  0  0  0
 21 23  1  0  0  0  0
  6  7  1  0  0  0  0
  4 24  1  0  0  0  0
  9 10  2  0  0  0  0
 24 25  1  0  0  0  0
 12 13  1  0  0  0  0
 25 26  2  0  0  0  0
 13 14  1  0  0  0  0
 25 27  1  0  0  0  0
 14 15  2  0  0  0  0
M  END
> <Value>
4.301029995663981

> <Relation>
<

> <SourceURI>
mol:CHEMBL1643400

$$$$

Generated by Molecular Materials Informatics

 28 28  0  0  0  0  0  0  0  0999 V2000
   22.1231   -1.5312    0.0000 N   0  0  0  0  0  0  0  0  0  0  0  0
   23.4511   -0.8291    0.0000 C   0  0  0  0  0  0  0  0  0  0  0  0
   23.5094    0.6720    0.0000 O   0  0  0  0  0  0  0  0  0  0  0  0
   24.7205   -1.6277    0.0000 N   0  0  0  0  0  0  0  0  0  0  0  0
   20.8034   -0.8369    0.0000 C   0  0  0  0  0  0  0  0  0  0  0  0
   16.8807   -1.4379    0.0000 C   0  0  0  0  0  0  0  0  0  0  0  0
   15.6111   -0.6391    0.0000 C   0  0  0  0  0  0  0  0  0  0  0  0
   14.2831   -1.3412    0.0000 N   0  0  0  0  0  0  0  0  0  0  0  0
   13.0137   -0.5425    0.0000 C   0  0  0  0  0  0  0  0  0  0  0  0
   13.0721    0.9585    0.0000 O   0  0  0  0  0  0  0  0  0  0  0  0
   11.6858   -1.2445    0.0000 O   0  0  0  0  0  0  0  0  0  0  0  0
   10.4162   -0.4458    0.0000 C   0  0  0  0  0  0  0  0  0  0  0  0
    9.0925   -1.1414    0.0000 C   0  0  0  0  0  0  0  0  0  0  0  0
    9.0339   -2.6424    0.0000 C   0  0  0  0  0  0  0  0  0  0  0  0
    7.7102   -3.3382    0.0000 C   0  0  0  0  0  0  0  0  0  0  0  0
    6.4406   -2.5393    0.0000 C   0  0  0  0  0  0  0  0  0  0  0  0
    6.4950   -1.0447    0.0000 C   0  0  0  0  0  0  0  0  0  0  0  0
    7.8229   -0.3425    0.0000 C   0  0  0  0  0  0  0  0  0  0  0  0
   18.2071   -0.7380    0.0000 C   0  0  0  0  0  0  0  0  0  0  0  0
   19.4767   -1.5368    0.0000 C   0  0  0  0  0  0  0  0  0  0  0  0
   20.8021    0.6631    0.0000 C   0  0  0  0  0  0  0  0  0  0  0  0
   22.1004    1.4141    0.0000 O   0  0  0  0  0  0  0  0  0  0  0  0
   19.5024    1.4119    0.0000 O   0  0  0  0  0  0  0  0  0  0  0  0
   26.0471   -0.9278    0.0000 C   0  0  0  0  0  0  0  0  0  0  0  0
   27.3165   -1.7267    0.0000 C   0  0  0  0  0  0  0  0  0  0  0  0
   26.1042    0.5711    0.0000 C   0  0  0  0  0  0  0  0  0  0  0  0
   27.2595   -3.2255    0.0000 O   0  0  0  0  0  0  0  0  0  0  0  0
   28.6432   -1.0267    0.0000 O   0  0  0  0  0  0  0  0  0  0  0  0
 16 17  2  0  0  0  0
 17 18  1  0  0  0  0
 13 18  2  0  0  0  0
 11 12  1  0  0  0  0
  9 11  1  0  0  0  0
  8  9  1  0  0  0  0
  7  8  1  0  0  0  0
  6 19  1  0  0  0  0
  5  1  1  0  0  0  0
 19 20  1  0  0  0  0
  5 20  1  1  0  0  0
  1  2  1  0  0  0  0
  5 21  1  0  0  0  0
  2  3  2  0  0  0  0
 21 22  2  0  0  0  0
  2  4  1  0  0  0  0
 21 23  1  0  0  0  0
  6  7  1  0  0  0  0
  4 24  1  0  0  0  0
  9 10  2  0  0  0  0
 24 25  1  0  0  0  0
 12 13  1  0  0  0  0
 24 26  1  1  0  0  0
 13 14  1  0  0  0  0
 25 27  2  0  0  0  0
 14 15  2  0  0  0  0
 25 28  1  0  0  0  0
 15 16  1  0  0  0  0
M  END
> <Value>
4.301029995663981

> <Relation>
<

> <SourceURI>
mol:CHEMBL1643401

$$$$

Generated by Molecular Materials Informatics

 30 30  0  0  0  0  0  0  0  0999 V2000
    6.9690   -8.1895    0.0000 N   0  0  0  0  0  0  0  0  0  0  0  0
    8.2970   -7.4874    0.0000 C   0  0  0  0  0  0  0  0  0  0  0  0
    8.3554   -5.9863    0.0000 O   0  0  0  0  0  0  0  0  0  0  0  0
    9.5666   -8.2862    0.0000 N   0  0  0  0  0  0  0  0  0  0  0  0
    5.6493   -7.4952    0.0000 C   0  0  0  0  0  0  0  0  0  0  0  0
    1.7264   -8.0964    0.0000 C   0  0  0  0  0  0  0  0  0  0  0  0
    0.4570   -7.2975    0.0000 C   0  0  0  0  0  0  0  0  0  0  0  0
   -0.8710   -7.9997    0.0000 N   0  0  0  0  0  0  0  0  0  0  0  0
   -2.1406   -7.2008    0.0000 C   0  0  0  0  0  0  0  0  0  0  0  0
   -2.0820   -5.6998    0.0000 O   0  0  0  0  0  0  0  0  0  0  0  0
   -3.4685   -7.9030    0.0000 O   0  0  0  0  0  0  0  0  0  0  0  0
   -4.7380   -7.1041    0.0000 C   0  0  0  0  0  0  0  0  0  0  0  0
   -6.0619   -7.7999    0.0000 C   0  0  0  0  0  0  0  0  0  0  0  0
   -6.1203   -9.3008    0.0000 C   0  0  0  0  0  0  0  0  0  0  0  0
   -7.4443   -9.9966    0.0000 C   0  0  0  0  0  0  0  0  0  0  0  0
   -8.7139   -9.1977    0.0000 C   0  0  0  0  0  0  0  0  0  0  0  0
   -8.6593   -7.7032    0.0000 C   0  0  0  0  0  0  0  0  0  0  0  0
   -7.3315   -7.0010    0.0000 C   0  0  0  0  0  0  0  0  0  0  0  0
    3.0531   -7.3964    0.0000 C   0  0  0  0  0  0  0  0  0  0  0  0
    4.3226   -8.1952    0.0000 C   0  0  0  0  0  0  0  0  0  0  0  0
    5.6480   -5.9952    0.0000 C   0  0  0  0  0  0  0  0  0  0  0  0
    6.9463   -5.2441    0.0000 O   0  0  0  0  0  0  0  0  0  0  0  0
    4.3484   -5.2463    0.0000 O   0  0  0  0  0  0  0  0  0  0  0  0
   10.8931   -7.5863    0.0000 C   0  0  0  0  0  0  0  0  0  0  0  0
   12.1627   -8.3852    0.0000 C   0  0  0  0  0  0  0  0  0  0  0  0
   10.9502   -6.0874    0.0000 C   0  0  0  0  0  0  0  0  0  0  0  0
   12.1057   -9.8840    0.0000 O   0  0  0  0  0  0  0  0  0  0  0  0
   13.4893   -7.6850    0.0000 O   0  0  0  0  0  0  0  0  0  0  0  0
   12.2767   -5.3874    0.0000 C   0  0  0  0  0  0  0  0  0  0  0  0
    9.6806   -5.2885    0.0000 C   0  0  0  0  0  0  0  0  0  0  0  0
 13 18  2  0  0  0  0
 11 12  1  0  0  0  0
  9 11  1  0  0  0  0
  8  9  1  0  0  0  0
  7  8  1  0  0  0  0
  6 19  1  0  0  0  0
  5  1  1  0  0  0  0
 19 20  1  0  0  0  0
  5 20  1  1  0  0  0
  1  2  1  0  0  0  0
  5 21  1  0  0  0  0
  2  3  2  0  0  0  0
 21 22  2  0  0  0  0
  2  4  1  0  0  0  0
 21 23  1  0  0  0  0
  6  7  1  0  0  0  0
  4 24  1  0  0  0  0
  9 10  2  0  0  0  0
 24 25  1  0  0  0  0
 12 13  1  0  0  0  0
 24 26  1  1  0  0  0
 13 14  1  0  0  0  0
 25 27  2  0  0  0  0
 14 15  2  0  0  0  0
 25 28  1  0  0  0  0
 15 16  1  0  0  0  0
 16 17  2  0  0  0  0
 26 29  1  0  0  0  0
 17 18  1  0  0  0  0
 26 30  1  0  0  0  0
M  END
> <Value>
4.301029995663981

> <Relation>
<

> <SourceURI>
mol:CHEMBL1643402

$$$$

Generated by Molecular Materials Informatics

 31 31  0  0  0  0  0  0  0  0999 V2000
   22.9978   -8.5153    0.0000 N   0  0  0  0  0  0  0  0  0  0  0  0
   24.3257   -7.8131    0.0000 C   0  0  0  0  0  0  0  0  0  0  0  0
   24.3841   -6.3121    0.0000 O   0  0  0  0  0  0  0  0  0  0  0  0
   25.5951   -8.6120    0.0000 N   0  0  0  0  0  0  0  0  0  0  0  0
   21.6780   -7.8211    0.0000 C   0  0  0  0  0  0  0  0  0  0  0  0
   17.7553   -8.4222    0.0000 C   0  0  0  0  0  0  0  0  0  0  0  0
   16.4857   -7.6233    0.0000 C   0  0  0  0  0  0  0  0  0  0  0  0
   15.1578   -8.3255    0.0000 N   0  0  0  0  0  0  0  0  0  0  0  0
   13.8884   -7.5266    0.0000 C   0  0  0  0  0  0  0  0  0  0  0  0
   13.9468   -6.0256    0.0000 O   0  0  0  0  0  0  0  0  0  0  0  0
   12.5605   -8.2288    0.0000 O   0  0  0  0  0  0  0  0  0  0  0  0
   11.2909   -7.4299    0.0000 C   0  0  0  0  0  0  0  0  0  0  0  0
    9.9671   -8.1257    0.0000 C   0  0  0  0  0  0  0  0  0  0  0  0
    9.9086   -9.6267    0.0000 C   0  0  0  0  0  0  0  0  0  0  0  0
    8.5848  -10.3223    0.0000 C   0  0  0  0  0  0  0  0  0  0  0  0
    7.3152   -9.5236    0.0000 C   0  0  0  0  0  0  0  0  0  0  0  0
    7.3696   -8.0290    0.0000 C   0  0  0  0  0  0  0  0  0  0  0  0
    8.6975   -7.3268    0.0000 C   0  0  0  0  0  0  0  0  0  0  0  0
   19.0818   -7.7222    0.0000 C   0  0  0  0  0  0  0  0  0  0  0  0
   20.3514   -8.5211    0.0000 C   0  0  0  0  0  0  0  0  0  0  0  0
   21.6768   -6.3212    0.0000 C   0  0  0  0  0  0  0  0  0  0  0  0
   22.9751   -5.5702    0.0000 O   0  0  0  0  0  0  0  0  0  0  0  0
   20.3770   -5.5723    0.0000 O   0  0  0  0  0  0  0  0  0  0  0  0
   26.9218   -7.9120    0.0000 C   0  0  0  0  0  0  0  0  0  0  0  0
   28.1912   -8.7109    0.0000 C   0  0  0  0  0  0  0  0  0  0  0  0
   26.9789   -6.4132    0.0000 C   0  0  0  0  0  0  0  0  0  0  0  0
   28.1341  -10.2098    0.0000 O   0  0  0  0  0  0  0  0  0  0  0  0
   29.5179   -8.0110    0.0000 O   0  0  0  0  0  0  0  0  0  0  0  0
   28.3054   -5.7132    0.0000 C   0  0  0  0  0  0  0  0  0  0  0  0
   28.3625   -4.2144    0.0000 C   0  0  0  0  0  0  0  0  0  0  0  0
   29.5750   -6.5121    0.0000 C   0  0  0  0  0  0  0  0  0  0  0  0
 11 12  1  0  0  0  0
  9 11  1  0  0  0  0
  8  9  1  0  0  0  0
  7  8  1  0  0  0  0
  6 19  1  0  0  0  0
  5  1  1  0  0  0  0
 19 20  1  0  0  0  0
  5 20  1  1  0  0  0
  1  2  1  0  0  0  0
  5 21  1  0  0  0  0
  2  3  2  0  0  0  0
 21 22  2  0  0  0  0
  2  4  1  0  0  0  0
 21 23  1  0  0  0  0
  6  7  1  0  0  0  0
  4 24  1  0  0  0  0
  9 10  2  0  0  0  0
 24 25  1  0  0  0  0
 12 13  1  0  0  0  0
 24 26  1  1  0  0  0
 13 14  1  0  0  0  0
 25 27  2  0  0  0  0
 14 15  2  0  0  0  0
 25 28  1  0  0  0  0
 15 16  1  0  0  0  0
 16 17  2  0  0  0  0
 26 29  1  0  0  0  0
 17 18  1  0  0  0  0
 29 30  1  0  0  0  0
 13 18  2  0  0  0  0
 29 31  1  0  0  0  0
M  END
> <Value>
4.301029995663981

> <Relation>
<

> <SourceURI>
mol:CHEMBL1643403

$$$$

Generated by Molecular Materials Informatics

 31 31  0  0  0  0  0  0  0  0999 V2000
    6.6771  -14.0853    0.0000 N   0  0  0  0  0  0  0  0  0  0  0  0
    8.0051  -13.3831    0.0000 C   0  0  0  0  0  0  0  0  0  0  0  0
    8.0636  -11.8820    0.0000 O   0  0  0  0  0  0  0  0  0  0  0  0
    9.2747  -14.1820    0.0000 N   0  0  0  0  0  0  0  0  0  0  0  0
    5.3573  -13.3911    0.0000 C   0  0  0  0  0  0  0  0  0  0  0  0
    1.4345  -13.9922    0.0000 C   0  0  0  0  0  0  0  0  0  0  0  0
    0.1649  -13.1933    0.0000 C   0  0  0  0  0  0  0  0  0  0  0  0
   -1.1631  -13.8955    0.0000 N   0  0  0  0  0  0  0  0  0  0  0  0
   -2.4326  -13.0966    0.0000 C   0  0  0  0  0  0  0  0  0  0  0  0
   -2.3742  -11.5955    0.0000 O   0  0  0  0  0  0  0  0  0  0  0  0
   -3.7606  -13.7987    0.0000 O   0  0  0  0  0  0  0  0  0  0  0  0
   -5.0302  -12.9998    0.0000 C   0  0  0  0  0  0  0  0  0  0  0  0
   -6.3542  -13.6957    0.0000 C   0  0  0  0  0  0  0  0  0  0  0  0
   -6.4126  -15.1968    0.0000 C   0  0  0  0  0  0  0  0  0  0  0  0
   -7.7366  -15.8924    0.0000 C   0  0  0  0  0  0  0  0  0  0  0  0
   -9.0061  -15.0937    0.0000 C   0  0  0  0  0  0  0  0  0  0  0  0
   -8.9517  -13.5989    0.0000 C   0  0  0  0  0  0  0  0  0  0  0  0
   -7.6237  -12.8967    0.0000 C   0  0  0  0  0  0  0  0  0  0  0  0
    2.7611  -13.2922    0.0000 C   0  0  0  0  0  0  0  0  0  0  0  0
    4.0307  -14.0911    0.0000 C   0  0  0  0  0  0  0  0  0  0  0  0
    5.3560  -11.8911    0.0000 C   0  0  0  0  0  0  0  0  0  0  0  0
    6.6544  -11.1400    0.0000 O   0  0  0  0  0  0  0  0  0  0  0  0
    4.0563  -11.1422    0.0000 O   0  0  0  0  0  0  0  0  0  0  0  0
   10.6013  -13.4820    0.0000 C   0  0  0  0  0  0  0  0  0  0  0  0
   11.8709  -14.2809    0.0000 C   0  0  0  0  0  0  0  0  0  0  0  0
   11.8138  -15.7798    0.0000 O   0  0  0  0  0  0  0  0  0  0  0  0
   13.1975  -13.5809    0.0000 O   0  0  0  0  0  0  0  0  0  0  0  0
   10.6584  -11.9831    0.0000 C   0  0  0  0  0  0  0  0  0  0  0  0
   11.9851  -11.2831    0.0000 C   0  0  0  0  0  0  0  0  0  0  0  0
    9.3889  -11.1842    0.0000 C   0  0  0  0  0  0  0  0  0  0  0  0
   13.2546  -12.0820    0.0000 C   0  0  0  0  0  0  0  0  0  0  0  0
 11 12  1  0  0  0  0
  9 11  1  0  0  0  0
  8  9  1  0  0  0  0
  7  8  1  0  0  0  0
  6 19  1  0  0  0  0
  5  1  1  0  0  0  0
 19 20  1  0  0  0  0
  5 20  1  1  0  0  0
  1  2  1  0  0  0  0
  5 21  1  0  0  0  0
  2  3  2  0  0  0  0
 21 22  2  0  0  0  0
  2  4  1  0  0  0  0
 21 23  1  0  0  0  0
  6  7  1  0  0  0  0
 24  4  1  1  0  0  0
  9 10  2  0  0  0  0
 24 25  1  0  0  0  0
 12 13  1  0  0  0  0
 25 26  2  0  0  0  0
 13 14  1  0  0  0  0
 25 27  1  0  0  0  0
 14 15  2  0  0  0  0
 15 16  1  0  0  0  0
 24 28  1  0  0  0  0
 16 17  2  0  0  0  0
 28 29  1  0  0  0  0
 17 18  1  0  0  0  0
 28 30  1  6  0  0  0
 13 18  2  0  0  0  0
 29 31  1  0  0  0  0
M  END
> <Value>
4.301029995663981

> <Relation>
<

> <SourceURI>
mol:CHEMBL1643404

$$$$

Generated by Molecular Materials Informatics

 34 35  0  0  0  0  0  0  0  0999 V2000
   24.9623  -13.7629    0.0000 N   0  0  0  0  0  0  0  0  0  0  0  0
   26.2903  -13.0607    0.0000 C   0  0  0  0  0  0  0  0  0  0  0  0
   26.3486  -11.5597    0.0000 O   0  0  0  0  0  0  0  0  0  0  0  0
   27.5597  -13.8596    0.0000 N   0  0  0  0  0  0  0  0  0  0  0  0
   23.6426  -13.0685    0.0000 C   0  0  0  0  0  0  0  0  0  0  0  0
   19.7198  -13.6698    0.0000 C   0  0  0  0  0  0  0  0  0  0  0  0
   18.4503  -12.8709    0.0000 C   0  0  0  0  0  0  0  0  0  0  0  0
   17.1223  -13.5731    0.0000 N   0  0  0  0  0  0  0  0  0  0  0  0
   15.8529  -12.7742    0.0000 C   0  0  0  0  0  0  0  0  0  0  0  0
   15.9113  -11.2732    0.0000 O   0  0  0  0  0  0  0  0  0  0  0  0
   14.5250  -13.4763    0.0000 O   0  0  0  0  0  0  0  0  0  0  0  0
   13.2554  -12.6775    0.0000 C   0  0  0  0  0  0  0  0  0  0  0  0
   11.9317  -13.3733    0.0000 C   0  0  0  0  0  0  0  0  0  0  0  0
   11.8731  -14.8741    0.0000 C   0  0  0  0  0  0  0  0  0  0  0  0
   10.5494  -15.5699    0.0000 C   0  0  0  0  0  0  0  0  0  0  0  0
    9.2798  -14.7710    0.0000 C   0  0  0  0  0  0  0  0  0  0  0  0
    9.3341  -13.2765    0.0000 C   0  0  0  0  0  0  0  0  0  0  0  0
   10.6621  -12.5744    0.0000 C   0  0  0  0  0  0  0  0  0  0  0  0
   21.0463  -12.9698    0.0000 C   0  0  0  0  0  0  0  0  0  0  0  0
   22.3159  -13.7685    0.0000 C   0  0  0  0  0  0  0  0  0  0  0  0
   23.6413  -11.5686    0.0000 C   0  0  0  0  0  0  0  0  0  0  0  0
   24.9396  -10.8176    0.0000 O   0  0  0  0  0  0  0  0  0  0  0  0
   22.3415  -10.8197    0.0000 O   0  0  0  0  0  0  0  0  0  0  0  0
   28.8863  -13.1596    0.0000 C   0  0  0  0  0  0  0  0  0  0  0  0
   30.1557  -13.9585    0.0000 C   0  0  0  0  0  0  0  0  0  0  0  0
   30.0986  -15.4573    0.0000 O   0  0  0  0  0  0  0  0  0  0  0  0
   31.4824  -13.2584    0.0000 O   0  0  0  0  0  0  0  0  0  0  0  0
   28.9434  -11.6608    0.0000 C   0  0  0  0  0  0  0  0  0  0  0  0
   30.2699  -10.9608    0.0000 C   0  0  0  0  0  0  0  0  0  0  0  0
   31.5358  -11.7673    0.0000 C   0  0  0  0  0  0  0  0  0  0  0  0
   32.8614  -11.0685    0.0000 C   0  0  0  0  0  0  0  0  0  0  0  0
   32.9194   -9.5682    0.0000 C   0  0  0  0  0  0  0  0  0  0  0  0
   31.6408   -8.7691    0.0000 C   0  0  0  0  0  0  0  0  0  0  0  0
   30.3205   -9.4725    0.0000 C   0  0  0  0  0  0  0  0  0  0  0  0
  7  8  1  0  0  0  0
  6 19  1  0  0  0  0
  5  1  1  0  0  0  0
 19 20  1  0  0  0  0
  5 20  1  1  0  0  0
  1  2  1  0  0  0  0
  5 21  1  0  0  0  0
  2  3  2  0  0  0  0
 21 22  2  0  0  0  0
  2  4  1  0  0  0  0
 21 23  1  0  0  0  0
  6  7  1  0  0  0  0
  4 24  1  0  0  0  0
  9 10  2  0  0  0  0
 24 25  1  0  0  0  0
 12 13  1  0  0  0  0
 25 26  2  0  0  0  0
 13 14  1  0  0  0  0
 25 27  1  0  0  0  0
 14 15  2  0  0  0  0
 15 16  1  0  0  0  0
 24 28  1  1  0  0  0
 16 17  2  0  0  0  0
 28 29  1  0  0  0  0
 17 18  1  0  0  0  0
 29 30  2  0  0  0  0
 13 18  2  0  0  0  0
 30 31  1  0  0  0  0
 11 12  1  0  0  0  0
 31 32  2  0  0  0  0
  9 11  1  0  0  0  0
 32 33  1  0  0  0  0
  8  9  1  0  0  0  0
 33 34  2  0  0  0  0
 34 29  1  0  0  0  0
M  END
> <Value>
4.301029995663981

> <Relation>
<

> <SourceURI>
mol:CHEMBL1643405

$$$$

Generated by Molecular Materials Informatics

 31 31  0  0  0  0  0  0  0  0999 V2000
    5.8471  -19.7937    0.0000 N   0  0  0  0  0  0  0  0  0  0  0  0
    7.1751  -19.0916    0.0000 C   0  0  0  0  0  0  0  0  0  0  0  0
    7.2334  -17.5905    0.0000 O   0  0  0  0  0  0  0  0  0  0  0  0
    8.4444  -19.8903    0.0000 N   0  0  0  0  0  0  0  0  0  0  0  0
    4.5274  -19.0994    0.0000 C   0  0  0  0  0  0  0  0  0  0  0  0
    0.6046  -19.7004    0.0000 C   0  0  0  0  0  0  0  0  0  0  0  0
   -0.6650  -18.9016    0.0000 C   0  0  0  0  0  0  0  0  0  0  0  0
   -1.9929  -19.6037    0.0000 N   0  0  0  0  0  0  0  0  0  0  0  0
   -3.2623  -18.8050    0.0000 C   0  0  0  0  0  0  0  0  0  0  0  0
   -3.2039  -17.3040    0.0000 O   0  0  0  0  0  0  0  0  0  0  0  0
   -4.5902  -19.5070    0.0000 O   0  0  0  0  0  0  0  0  0  0  0  0
   -5.8598  -18.7083    0.0000 C   0  0  0  0  0  0  0  0  0  0  0  0
   -7.1836  -19.4039    0.0000 C   0  0  0  0  0  0  0  0  0  0  0  0
   -7.2421  -20.9049    0.0000 C   0  0  0  0  0  0  0  0  0  0  0  0
   -8.5659  -21.6007    0.0000 C   0  0  0  0  0  0  0  0  0  0  0  0
   -9.8354  -20.8019    0.0000 C   0  0  0  0  0  0  0  0  0  0  0  0
   -9.7811  -19.3072    0.0000 C   0  0  0  0  0  0  0  0  0  0  0  0
   -8.4531  -18.6050    0.0000 C   0  0  0  0  0  0  0  0  0  0  0  0
    1.9311  -19.0005    0.0000 C   0  0  0  0  0  0  0  0  0  0  0  0
    3.2007  -19.7994    0.0000 C   0  0  0  0  0  0  0  0  0  0  0  0
    4.5261  -17.5995    0.0000 C   0  0  0  0  0  0  0  0  0  0  0  0
    5.8244  -16.8484    0.0000 O   0  0  0  0  0  0  0  0  0  0  0  0
    3.2263  -16.8506    0.0000 O   0  0  0  0  0  0  0  0  0  0  0  0
    9.7711  -19.1903    0.0000 C   0  0  0  0  0  0  0  0  0  0  0  0
   11.0405  -19.9892    0.0000 C   0  0  0  0  0  0  0  0  0  0  0  0
   10.9834  -21.4880    0.0000 O   0  0  0  0  0  0  0  0  0  0  0  0
   12.3672  -19.2892    0.0000 O   0  0  0  0  0  0  0  0  0  0  0  0
    9.8282  -17.6915    0.0000 C   0  0  0  0  0  0  0  0  0  0  0  0
   11.1547  -16.9915    0.0000 C   0  0  0  0  0  0  0  0  0  0  0  0
   11.2118  -15.4926    0.0000 S   0  0  0  0  0  0  0  0  0  0  0  0
   12.5384  -14.7927    0.0000 C   0  0  0  0  0  0  0  0  0  0  0  0
 11 12  1  0  0  0  0
  9 11  1  0  0  0  0
  8  9  1  0  0  0  0
  7  8  1  0  0  0  0
  6 19  1  0  0  0  0
  5  1  1  0  0  0  0
 19 20  1  0  0  0  0
  5 20  1  1  0  0  0
  1  2  1  0  0  0  0
  5 21  1  0  0  0  0
  2  3  2  0  0  0  0
 21 22  2  0  0  0  0
  2  4  1  0  0  0  0
 21 23  1  0  0  0  0
  6  7  1  0  0  0  0
  4 24  1  0  0  0  0
  9 10  2  0  0  0  0
 24 25  1  0  0  0  0
 12 13  1  0  0  0  0
 25 26  2  0  0  0  0
 13 14  1  0  0  0  0
 25 27  1  0  0  0  0
 14 15  2  0  0  0  0
 15 16  1  0  0  0  0
 24 28  1  1  0  0  0
 16 17  2  0  0  0  0
 28 29  1  0  0  0  0
 17 18  1  0  0  0  0
 29 30  1  0  0  0  0
 13 18  2  0  0  0  0
 30 31  1  0  0  0  0
M  END
> <Value>
4.301029995663981

> <Relation>
<

> <SourceURI>
mol:CHEMBL1643406

$$$$

Generated by Molecular Materials Informatics

 29 29  0  0  0  0  0  0  0  0999 V2000
    5.1333   -1.4890    0.0000 N   0  0  0  0  0  0  0  0  0  0  0  0
    6.4612   -0.7868    0.0000 C   0  0  0  0  0  0  0  0  0  0  0  0
    6.5196    0.7142    0.0000 O   0  0  0  0  0  0  0  0  0  0  0  0
    7.7308   -1.5857    0.0000 N   0  0  0  0  0  0  0  0  0  0  0  0
    3.8135   -0.7946    0.0000 C   0  0  0  0  0  0  0  0  0  0  0  0
   -0.1092   -1.3959    0.0000 C   0  0  0  0  0  0  0  0  0  0  0  0
   -1.3786   -0.5970    0.0000 C   0  0  0  0  0  0  0  0  0  0  0  0
   -2.7065   -1.2992    0.0000 N   0  0  0  0  0  0  0  0  0  0  0  0
   -3.9761   -0.5003    0.0000 C   0  0  0  0  0  0  0  0  0  0  0  0
   -3.9176    1.0007    0.0000 O   0  0  0  0  0  0  0  0  0  0  0  0
   -5.3040   -1.2024    0.0000 O   0  0  0  0  0  0  0  0  0  0  0  0
   -6.5734   -0.4036    0.0000 C   0  0  0  0  0  0  0  0  0  0  0  0
   -7.8974   -1.0994    0.0000 C   0  0  0  0  0  0  0  0  0  0  0  0
   -7.9557   -2.6002    0.0000 C   0  0  0  0  0  0  0  0  0  0  0  0
   -9.2797   -3.2960    0.0000 C   0  0  0  0  0  0  0  0  0  0  0  0
  -10.5493   -2.4971    0.0000 C   0  0  0  0  0  0  0  0  0  0  0  0
  -10.4947   -1.0026    0.0000 C   0  0  0  0  0  0  0  0  0  0  0  0
   -9.1670   -0.3005    0.0000 C   0  0  0  0  0  0  0  0  0  0  0  0
    1.2175   -0.6959    0.0000 C   0  0  0  0  0  0  0  0  0  0  0  0
    2.4869   -1.4946    0.0000 C   0  0  0  0  0  0  0  0  0  0  0  0
    3.8123    0.7053    0.0000 C   0  0  0  0  0  0  0  0  0  0  0  0
    5.1106    1.4563    0.0000 O   0  0  0  0  0  0  0  0  0  0  0  0
    2.5127    1.4542    0.0000 N   0  0  0  0  0  0  0  0  0  0  0  0
    2.5114    2.9541    0.0000 O   0  0  0  0  0  0  0  0  0  0  0  0
    9.0573   -0.8857    0.0000 C   0  0  0  0  0  0  0  0  0  0  0  0
   10.3269   -1.6846    0.0000 C   0  0  0  0  0  0  0  0  0  0  0  0
   10.2698   -3.1834    0.0000 O   0  0  0  0  0  0  0  0  0  0  0  0
   11.6534   -0.9845    0.0000 N   0  0  0  0  0  0  0  0  0  0  0  0
   12.9230   -1.7833    0.0000 O   0  0  0  0  0  0  0  0  0  0  0  0
 16 17  2  0  0  0  0
 17 18  1  0  0  0  0
 13 18  2  0  0  0  0
 11 12  1  0  0  0  0
  9 11  1  0  0  0  0
  8  9  1  0  0  0  0
  7  8  1  0  0  0  0
  6 19  1  0  0  0  0
  5  1  1  0  0  0  0
 19 20  1  0  0  0  0
  5 20  1  1  0  0  0
  1  2  1  0  0  0  0
  5 21  1  0  0  0  0
  2  3  2  0  0  0  0
 21 22  2  0  0  0  0
  2  4  1  0  0  0  0
 21 23  1  0  0  0  0
  6  7  1  0  0  0  0
 23 24  1  0  0  0  0
  9 10  2  0  0  0  0
  4 25  1  0  0  0  0
 12 13  1  0  0  0  0
 25 26  1  0  0  0  0
 13 14  1  0  0  0  0
 26 27  2  0  0  0  0
 14 15  2  0  0  0  0
 26 28  1  0  0  0  0
 15 16  1  0  0  0  0
 28 29  1  0  0  0  0
M  END
> <Value>
4.690369832574101

> <Relation>
=

> <SourceURI>
mol:CHEMBL1643407

$$$$

Generated by Molecular Materials Informatics

 30 30  0  0  0  0  0  0  0  0999 V2000
   29.4224   -1.9658    0.0000 N   0  0  0  0  0  0  0  0  0  0  0  0
   30.6920   -2.7647    0.0000 O   0  0  0  0  0  0  0  0  0  0  0  0
   28.0930   -2.6596    0.0000 C   0  0  0  0  0  0  0  0  0  0  0  0
   22.8995   -2.4640    0.0000 N   0  0  0  0  0  0  0  0  0  0  0  0
   24.2275   -1.7618    0.0000 C   0  0  0  0  0  0  0  0  0  0  0  0
   24.2858   -0.2608    0.0000 O   0  0  0  0  0  0  0  0  0  0  0  0
   25.4969   -2.5607    0.0000 N   0  0  0  0  0  0  0  0  0  0  0  0
   21.5797   -1.7697    0.0000 C   0  0  0  0  0  0  0  0  0  0  0  0
   17.6569   -2.3709    0.0000 C   0  0  0  0  0  0  0  0  0  0  0  0
   16.3873   -1.5720    0.0000 C   0  0  0  0  0  0  0  0  0  0  0  0
   15.0593   -2.2742    0.0000 N   0  0  0  0  0  0  0  0  0  0  0  0
   13.7899   -1.4753    0.0000 C   0  0  0  0  0  0  0  0  0  0  0  0
   13.8482    0.0258    0.0000 O   0  0  0  0  0  0  0  0  0  0  0  0
   12.4619   -2.1775    0.0000 O   0  0  0  0  0  0  0  0  0  0  0  0
   11.1923   -1.3786    0.0000 C   0  0  0  0  0  0  0  0  0  0  0  0
    9.8685   -2.0744    0.0000 C   0  0  0  0  0  0  0  0  0  0  0  0
    9.8100   -3.5753    0.0000 C   0  0  0  0  0  0  0  0  0  0  0  0
    8.4862   -4.2711    0.0000 C   0  0  0  0  0  0  0  0  0  0  0  0
    7.2166   -3.4722    0.0000 C   0  0  0  0  0  0  0  0  0  0  0  0
    7.2709   -1.9777    0.0000 C   0  0  0  0  0  0  0  0  0  0  0  0
    8.5989   -1.2755    0.0000 C   0  0  0  0  0  0  0  0  0  0  0  0
   18.9834   -1.6709    0.0000 C   0  0  0  0  0  0  0  0  0  0  0  0
   20.2530   -2.4696    0.0000 C   0  0  0  0  0  0  0  0  0  0  0  0
   21.5784   -0.2697    0.0000 C   0  0  0  0  0  0  0  0  0  0  0  0
   22.8768    0.4814    0.0000 O   0  0  0  0  0  0  0  0  0  0  0  0
   20.2786    0.4792    0.0000 N   0  0  0  0  0  0  0  0  0  0  0  0
   20.2774    1.9792    0.0000 O   0  0  0  0  0  0  0  0  0  0  0  0
   26.8236   -1.8608    0.0000 C   0  0  0  0  0  0  0  0  0  0  0  0
   26.8807   -0.3619    0.0000 C   0  0  0  0  0  0  0  0  0  0  0  0
   28.0359   -4.1585    0.0000 O   0  0  0  0  0  0  0  0  0  0  0  0
 15 16  1  0  0  0  0
 16 17  1  0  0  0  0
 17 18  2  0  0  0  0
 18 19  1  0  0  0  0
 19 20  2  0  0  0  0
 20 21  1  0  0  0  0
 16 21  2  0  0  0  0
 14 15  1  0  0  0  0
 12 14  1  0  0  0  0
 11 12  1  0  0  0  0
 10 11  1  0  0  0  0
  8  4  1  0  0  0  0
  9 22  1  0  0  0  0
  3  1  1  0  0  0  0
 22 23  1  0  0  0  0
  8 23  1  1  0  0  0
  8 24  1  0  0  0  0
  4  5  1  0  0  0  0
 24 25  2  0  0  0  0
  5  6  2  0  0  0  0
 24 26  1  0  0  0  0
  5  7  1  0  0  0  0
 26 27  1  0  0  0  0
  1  2  1  0  0  0  0
  7 28  1  0  0  0  0
 28  3  1  0  0  0  0
  9 10  1  0  0  0  0
 28 29  1  1  0  0  0
 12 13  2  0  0  0  0
  3 30  2  0  0  0  0
M  END
> <Value>
4.701146923590294

> <Relation>
=

> <SourceURI>
mol:CHEMBL1643408

$$$$

Generated by Molecular Materials Informatics

 33 33  0  0  0  0  0  0  0  0999 V2000
   29.6102   -8.0159    0.0000 N   0  0  0  0  0  0  0  0  0  0  0  0
   30.8798   -8.8148    0.0000 O   0  0  0  0  0  0  0  0  0  0  0  0
   28.2807   -8.7097    0.0000 C   0  0  0  0  0  0  0  0  0  0  0  0
   23.0871   -8.5140    0.0000 N   0  0  0  0  0  0  0  0  0  0  0  0
   24.4151   -7.8119    0.0000 C   0  0  0  0  0  0  0  0  0  0  0  0
   24.4734   -6.3108    0.0000 O   0  0  0  0  0  0  0  0  0  0  0  0
   25.6845   -8.6108    0.0000 N   0  0  0  0  0  0  0  0  0  0  0  0
   21.7673   -7.8197    0.0000 C   0  0  0  0  0  0  0  0  0  0  0  0
   17.8443   -8.4209    0.0000 C   0  0  0  0  0  0  0  0  0  0  0  0
   16.5747   -7.6220    0.0000 C   0  0  0  0  0  0  0  0  0  0  0  0
   15.2467   -8.3242    0.0000 N   0  0  0  0  0  0  0  0  0  0  0  0
   13.9773   -7.5253    0.0000 C   0  0  0  0  0  0  0  0  0  0  0  0
   14.0356   -6.0242    0.0000 O   0  0  0  0  0  0  0  0  0  0  0  0
   12.6493   -8.2275    0.0000 O   0  0  0  0  0  0  0  0  0  0  0  0
   11.3796   -7.4286    0.0000 C   0  0  0  0  0  0  0  0  0  0  0  0
   10.0558   -8.1244    0.0000 C   0  0  0  0  0  0  0  0  0  0  0  0
    9.9973   -9.6253    0.0000 C   0  0  0  0  0  0  0  0  0  0  0  0
    8.6734  -10.3211    0.0000 C   0  0  0  0  0  0  0  0  0  0  0  0
    7.4038   -9.5222    0.0000 C   0  0  0  0  0  0  0  0  0  0  0  0
    7.4582   -8.0277    0.0000 C   0  0  0  0  0  0  0  0  0  0  0  0
    8.7862   -7.3255    0.0000 C   0  0  0  0  0  0  0  0  0  0  0  0
   19.1709   -7.7210    0.0000 C   0  0  0  0  0  0  0  0  0  0  0  0
   20.4405   -8.5197    0.0000 C   0  0  0  0  0  0  0  0  0  0  0  0
   21.7660   -6.3197    0.0000 C   0  0  0  0  0  0  0  0  0  0  0  0
   23.0643   -5.5686    0.0000 O   0  0  0  0  0  0  0  0  0  0  0  0
   20.4662   -5.5708    0.0000 N   0  0  0  0  0  0  0  0  0  0  0  0
   20.4649   -4.0708    0.0000 O   0  0  0  0  0  0  0  0  0  0  0  0
   27.0112   -7.9108    0.0000 C   0  0  0  0  0  0  0  0  0  0  0  0
   27.0683   -6.4119    0.0000 C   0  0  0  0  0  0  0  0  0  0  0  0
   28.2236  -10.2086    0.0000 O   0  0  0  0  0  0  0  0  0  0  0  0
   28.3949   -5.7119    0.0000 C   0  0  0  0  0  0  0  0  0  0  0  0
   28.4520   -4.2128    0.0000 C   0  0  0  0  0  0  0  0  0  0  0  0
   29.6645   -6.5106    0.0000 C   0  0  0  0  0  0  0  0  0  0  0  0
 18 19  1  0  0  0  0
 19 20  2  0  0  0  0
 20 21  1  0  0  0  0
 16 21  2  0  0  0  0
 14 15  1  0  0  0  0
 12 14  1  0  0  0  0
 11 12  1  0  0  0  0
 10 11  1  0  0  0  0
  8  4  1  0  0  0  0
  9 22  1  0  0  0  0
  3  1  1  0  0  0  0
 22 23  1  0  0  0  0
  8 23  1  1  0  0  0
  8 24  1  0  0  0  0
  4  5  1  0  0  0  0
 24 25  2  0  0  0  0
  5  6  2  0  0  0  0
 24 26  1  0  0  0  0
  5  7  1  0  0  0  0
 26 27  1  0  0  0  0
  1  2  1  0  0  0  0
  7 28  1  0  0  0  0
 28  3  1  0  0  0  0
  9 10  1  0  0  0  0
 28 29  1  1  0  0  0
 12 13  2  0  0  0  0
  3 30  2  0  0  0  0
 15 16  1  0  0  0  0
 29 31  1  0  0  0  0
 16 17  1  0  0  0  0
 31 32  1  0  0  0  0
 17 18  2  0  0  0  0
 31 33  1  0  0  0  0
M  END
> <Value>
5.345823458122039

> <Relation>
=

> <SourceURI>
mol:CHEMBL1643409

$$$$

Generated by Molecular Materials Informatics

 33 33  0  0  0  0  0  0  0  0999 V2000
   12.2436  -13.1909    0.0000 N   0  0  0  0  0  0  0  0  0  0  0  0
   13.5131  -13.9898    0.0000 O   0  0  0  0  0  0  0  0  0  0  0  0
   10.9142  -13.8847    0.0000 C   0  0  0  0  0  0  0  0  0  0  0  0
    5.7204  -13.6890    0.0000 N   0  0  0  0  0  0  0  0  0  0  0  0
    7.0484  -12.9869    0.0000 C   0  0  0  0  0  0  0  0  0  0  0  0
    7.1067  -11.4858    0.0000 O   0  0  0  0  0  0  0  0  0  0  0  0
    8.3180  -13.7858    0.0000 N   0  0  0  0  0  0  0  0  0  0  0  0
    4.4006  -12.9947    0.0000 C   0  0  0  0  0  0  0  0  0  0  0  0
    0.4776  -13.5959    0.0000 C   0  0  0  0  0  0  0  0  0  0  0  0
   -0.7918  -12.7970    0.0000 C   0  0  0  0  0  0  0  0  0  0  0  0
   -2.1198  -13.4992    0.0000 N   0  0  0  0  0  0  0  0  0  0  0  0
   -3.3894  -12.7003    0.0000 C   0  0  0  0  0  0  0  0  0  0  0  0
   -3.3309  -11.1992    0.0000 O   0  0  0  0  0  0  0  0  0  0  0  0
   -4.7174  -13.4025    0.0000 O   0  0  0  0  0  0  0  0  0  0  0  0
   -5.9869  -12.6036    0.0000 C   0  0  0  0  0  0  0  0  0  0  0  0
   -7.3109  -13.2994    0.0000 C   0  0  0  0  0  0  0  0  0  0  0  0
   -7.3693  -14.8003    0.0000 C   0  0  0  0  0  0  0  0  0  0  0  0
   -8.6933  -15.4961    0.0000 C   0  0  0  0  0  0  0  0  0  0  0  0
   -9.9629  -14.6972    0.0000 C   0  0  0  0  0  0  0  0  0  0  0  0
   -9.9084  -13.2027    0.0000 C   0  0  0  0  0  0  0  0  0  0  0  0
   -8.5805  -12.5005    0.0000 C   0  0  0  0  0  0  0  0  0  0  0  0
    1.8044  -12.8960    0.0000 C   0  0  0  0  0  0  0  0  0  0  0  0
    3.0738  -13.6947    0.0000 C   0  0  0  0  0  0  0  0  0  0  0  0
    4.3993  -11.4947    0.0000 C   0  0  0  0  0  0  0  0  0  0  0  0
    5.6976  -10.7436    0.0000 O   0  0  0  0  0  0  0  0  0  0  0  0
    3.0996  -10.7458    0.0000 N   0  0  0  0  0  0  0  0  0  0  0  0
    3.0984   -9.2458    0.0000 O   0  0  0  0  0  0  0  0  0  0  0  0
    9.6446  -13.0858    0.0000 C   0  0  0  0  0  0  0  0  0  0  0  0
   10.8571  -15.3836    0.0000 O   0  0  0  0  0  0  0  0  0  0  0  0
    9.7016  -11.5869    0.0000 C   0  0  0  0  0  0  0  0  0  0  0  0
   11.0282  -10.8869    0.0000 C   0  0  0  0  0  0  0  0  0  0  0  0
    8.4320  -10.7880    0.0000 C   0  0  0  0  0  0  0  0  0  0  0  0
   12.2978  -11.6856    0.0000 C   0  0  0  0  0  0  0  0  0  0  0  0
 18 19  1  0  0  0  0
 19 20  2  0  0  0  0
 20 21  1  0  0  0  0
 16 21  2  0  0  0  0
 14 15  1  0  0  0  0
 12 14  1  0  0  0  0
 11 12  1  0  0  0  0
 10 11  1  0  0  0  0
  8  4  1  0  0  0  0
  9 22  1  0  0  0  0
  3  1  1  0  0  0  0
 22 23  1  0  0  0  0
  8 23  1  1  0  0  0
  8 24  1  0  0  0  0
  4  5  1  0  0  0  0
 24 25  2  0  0  0  0
  5  6  2  0  0  0  0
 24 26  1  0  0  0  0
  5  7  1  0  0  0  0
 26 27  1  0  0  0  0
  1  2  1  0  0  0  0
 28  7  1  1  0  0  0
 28  3  1  0  0  0  0
  9 10  1  0  0  0  0
  3 29  2  0  0  0  0
 12 13  2  0  0  0  0
 28 30  1  0  0  0  0
 15 16  1  0  0  0  0
 30 31  1  0  0  0  0
 16 17  1  0  0  0  0
 30 32  1  6  0  0  0
 17 18  2  0  0  0  0
 31 33  1  0  0  0  0
M  END
> <Value>
4.301029995663981

> <Relation>
<

> <SourceURI>
mol:CHEMBL1643392

$$$$

Generated by Molecular Materials Informatics

 36 37  0  0  0  0  0  0  0  0999 V2000
   32.2356  -13.6440    0.0000 N   0  0  0  0  0  0  0  0  0  0  0  0
   33.5052  -14.4429    0.0000 O   0  0  0  0  0  0  0  0  0  0  0  0
   30.9061  -14.3376    0.0000 C   0  0  0  0  0  0  0  0  0  0  0  0
   25.7125  -14.1422    0.0000 N   0  0  0  0  0  0  0  0  0  0  0  0
   27.0405  -13.4400    0.0000 C   0  0  0  0  0  0  0  0  0  0  0  0
   27.0989  -11.9389    0.0000 O   0  0  0  0  0  0  0  0  0  0  0  0
   28.3100  -14.2387    0.0000 N   0  0  0  0  0  0  0  0  0  0  0  0
   24.3927  -13.4478    0.0000 C   0  0  0  0  0  0  0  0  0  0  0  0
   20.4698  -14.0489    0.0000 C   0  0  0  0  0  0  0  0  0  0  0  0
   19.2001  -13.2500    0.0000 C   0  0  0  0  0  0  0  0  0  0  0  0
   17.8721  -13.9522    0.0000 N   0  0  0  0  0  0  0  0  0  0  0  0
   16.6027  -13.1534    0.0000 C   0  0  0  0  0  0  0  0  0  0  0  0
   16.6611  -11.6523    0.0000 O   0  0  0  0  0  0  0  0  0  0  0  0
   15.2747  -13.8554    0.0000 O   0  0  0  0  0  0  0  0  0  0  0  0
   14.0051  -13.0567    0.0000 C   0  0  0  0  0  0  0  0  0  0  0  0
   12.6812  -13.7523    0.0000 C   0  0  0  0  0  0  0  0  0  0  0  0
   12.6227  -15.2534    0.0000 C   0  0  0  0  0  0  0  0  0  0  0  0
   11.2989  -15.9492    0.0000 C   0  0  0  0  0  0  0  0  0  0  0  0
   10.0292  -15.1503    0.0000 C   0  0  0  0  0  0  0  0  0  0  0  0
   10.0836  -13.6556    0.0000 C   0  0  0  0  0  0  0  0  0  0  0  0
   11.4116  -12.9534    0.0000 C   0  0  0  0  0  0  0  0  0  0  0  0
   21.7963  -13.3489    0.0000 C   0  0  0  0  0  0  0  0  0  0  0  0
   23.0660  -14.1478    0.0000 C   0  0  0  0  0  0  0  0  0  0  0  0
   24.3914  -11.9478    0.0000 C   0  0  0  0  0  0  0  0  0  0  0  0
   25.6898  -11.1967    0.0000 O   0  0  0  0  0  0  0  0  0  0  0  0
   23.0916  -11.1989    0.0000 N   0  0  0  0  0  0  0  0  0  0  0  0
   23.0903   -9.6989    0.0000 O   0  0  0  0  0  0  0  0  0  0  0  0
   29.6367  -13.5387    0.0000 C   0  0  0  0  0  0  0  0  0  0  0  0
   30.8491  -15.8365    0.0000 O   0  0  0  0  0  0  0  0  0  0  0  0
   29.6938  -12.0398    0.0000 C   0  0  0  0  0  0  0  0  0  0  0  0
   31.0203  -11.3398    0.0000 C   0  0  0  0  0  0  0  0  0  0  0  0
   32.2863  -12.1463    0.0000 C   0  0  0  0  0  0  0  0  0  0  0  0
   33.6120  -11.4476    0.0000 C   0  0  0  0  0  0  0  0  0  0  0  0
   33.6700   -9.9471    0.0000 C   0  0  0  0  0  0  0  0  0  0  0  0
   32.3912   -9.1482    0.0000 C   0  0  0  0  0  0  0  0  0  0  0  0
   31.0709   -9.8514    0.0000 C   0  0  0  0  0  0  0  0  0  0  0  0
 16 21  2  0  0  0  0
 14 15  1  0  0  0  0
 12 14  1  0  0  0  0
 11 12  1  0  0  0  0
 10 11  1  0  0  0  0
  8  4  1  0  0  0  0
  9 22  1  0  0  0  0
  3  1  1  0  0  0  0
 22 23  1  0  0  0  0
  8 23  1  1  0  0  0
  8 24  1  0  0  0  0
  4  5  1  0  0  0  0
 24 25  2  0  0  0  0
  5  6  2  0  0  0  0
 24 26  1  0  0  0  0
  5  7  1  0  0  0  0
 26 27  1  0  0  0  0
  1  2  1  0  0  0  0
  7 28  1  0  0  0  0
 28  3  1  0  0  0  0
  9 10  1  0  0  0  0
  3 29  2  0  0  0  0
 12 13  2  0  0  0  0
 28 30  1  1  0  0  0
 15 16  1  0  0  0  0
 30 31  1  0  0  0  0
 16 17  1  0  0  0  0
 31 32  2  0  0  0  0
 17 18  2  0  0  0  0
 32 33  1  0  0  0  0
 18 19  1  0  0  0  0
 33 34  2  0  0  0  0
 19 20  2  0  0  0  0
 34 35  1  0  0  0  0
 20 21  1  0  0  0  0
 35 36  2  0  0  0  0
 36 31  1  0  0  0  0
M  END
> <Value>
4.838631997765025

> <Relation>
=

> <SourceURI>
mol:CHEMBL1643393

$$$$

Generated by Molecular Materials Informatics

 33 33  0  0  0  0  0  0  0  0999 V2000
   10.3752   -7.3980    0.0000 N   0  0  0  0  0  0  0  0  0  0  0  0
   11.7032   -6.6958    0.0000 C   0  0  0  0  0  0  0  0  0  0  0  0
   11.7616   -5.1947    0.0000 O   0  0  0  0  0  0  0  0  0  0  0  0
   12.9727   -7.4945    0.0000 N   0  0  0  0  0  0  0  0  0  0  0  0
    9.0554   -6.7036    0.0000 C   0  0  0  0  0  0  0  0  0  0  0  0
    5.1325   -7.3047    0.0000 C   0  0  0  0  0  0  0  0  0  0  0  0
    3.8629   -6.5058    0.0000 C   0  0  0  0  0  0  0  0  0  0  0  0
    2.5349   -7.2080    0.0000 N   0  0  0  0  0  0  0  0  0  0  0  0
    1.2654   -6.4093    0.0000 C   0  0  0  0  0  0  0  0  0  0  0  0
    1.3238   -4.9082    0.0000 O   0  0  0  0  0  0  0  0  0  0  0  0
   -0.0626   -7.1113    0.0000 O   0  0  0  0  0  0  0  0  0  0  0  0
   -1.3322   -6.3125    0.0000 C   0  0  0  0  0  0  0  0  0  0  0  0
   -2.6560   -7.0082    0.0000 C   0  0  0  0  0  0  0  0  0  0  0  0
   -2.7146   -8.5093    0.0000 C   0  0  0  0  0  0  0  0  0  0  0  0
   -4.0384   -9.2051    0.0000 C   0  0  0  0  0  0  0  0  0  0  0  0
   -5.3080   -8.4062    0.0000 C   0  0  0  0  0  0  0  0  0  0  0  0
   -5.2537   -6.9114    0.0000 C   0  0  0  0  0  0  0  0  0  0  0  0
   -3.9257   -6.2093    0.0000 C   0  0  0  0  0  0  0  0  0  0  0  0
    6.4590   -6.6047    0.0000 C   0  0  0  0  0  0  0  0  0  0  0  0
    7.7287   -7.4036    0.0000 C   0  0  0  0  0  0  0  0  0  0  0  0
    9.0541   -5.2036    0.0000 C   0  0  0  0  0  0  0  0  0  0  0  0
   10.3525   -4.4525    0.0000 O   0  0  0  0  0  0  0  0  0  0  0  0
    7.7543   -4.4547    0.0000 N   0  0  0  0  0  0  0  0  0  0  0  0
    7.7530   -2.9547    0.0000 O   0  0  0  0  0  0  0  0  0  0  0  0
   14.2994   -6.7945    0.0000 C   0  0  0  0  0  0  0  0  0  0  0  0
   15.5689   -7.5934    0.0000 C   0  0  0  0  0  0  0  0  0  0  0  0
   15.5118   -9.0924    0.0000 O   0  0  0  0  0  0  0  0  0  0  0  0
   14.3565   -5.2956    0.0000 C   0  0  0  0  0  0  0  0  0  0  0  0
   15.6830   -4.5956    0.0000 C   0  0  0  0  0  0  0  0  0  0  0  0
   15.7401   -3.0967    0.0000 S   0  0  0  0  0  0  0  0  0  0  0  0
   17.0669   -2.3967    0.0000 C   0  0  0  0  0  0  0  0  0  0  0  0
   16.8956   -6.8934    0.0000 N   0  0  0  0  0  0  0  0  0  0  0  0
   18.1650   -7.6924    0.0000 O   0  0  0  0  0  0  0  0  0  0  0  0
 11 12  1  0  0  0  0
  9 11  1  0  0  0  0
  8  9  1  0  0  0  0
  7  8  1  0  0  0  0
  6 19  1  0  0  0  0
  5  1  1  0  0  0  0
 19 20  1  0  0  0  0
  5 20  1  1  0  0  0
  1  2  1  0  0  0  0
  5 21  1  0  0  0  0
  2  3  2  0  0  0  0
 21 22  2  0  0  0  0
  2  4  1  0  0  0  0
 21 23  1  0  0  0  0
  6  7  1  0  0  0  0
 23 24  1  0  0  0  0
  9 10  2  0  0  0  0
  4 25  1  0  0  0  0
 12 13  1  0  0  0  0
 25 26  1  0  0  0  0
 13 14  1  0  0  0  0
 26 27  2  0  0  0  0
 14 15  2  0  0  0  0
 25 28  1  1  0  0  0
 15 16  1  0  0  0  0
 28 29  1  0  0  0  0
 16 17  2  0  0  0  0
 29 30  1  0  0  0  0
 17 18  1  0  0  0  0
 30 31  1  0  0  0  0
 26 32  1  0  0  0  0
 13 18  2  0  0  0  0
 32 33  1  0  0  0  0
M  END
> <Value>
4.841637507904751

> <Relation>
=

> <SourceURI>
mol:CHEMBL1643394

$$$$

Generated by Molecular Materials Informatics

 33 32  0  0  0  0  0  0  0  0999 V2000
   -0.0678   -3.4250    0.0000 C   0  0  0  0  0  0  0  0  0  0  0  0
    3.8510   -2.7097    0.0000 C   0  0  0  0  0  0  0  0  0  0  0  0
    7.7387   -3.4768    0.0000 C   0  0  0  0  0  0  0  0  0  0  0  0
    1.2385   -2.6786    0.0000 N   0  0  0  0  0  0  0  0  0  0  0  0
    5.1468   -3.4561    0.0000 N   0  0  0  0  0  0  0  0  0  0  0  0
   -1.3534   -2.6786    0.0000 C   0  0  0  0  0  0  0  0  0  0  0  0
    9.0450   -2.7303    0.0000 N   0  0  0  0  0  0  0  0  0  0  0  0
    2.5447   -3.4457    0.0000 C   0  0  0  0  0  0  0  0  0  0  0  0
    6.4531   -2.7097    0.0000 C   0  0  0  0  0  0  0  0  0  0  0  0
   10.3408   -3.4872    0.0000 C   0  0  0  0  0  0  0  0  0  0  0  0
   10.3408   -4.9801    0.0000 C   0  0  0  0  0  0  0  0  0  0  0  0
   11.6470   -2.7408    0.0000 C   0  0  0  0  0  0  0  0  0  0  0  0
   -2.6597   -3.4250    0.0000 C   0  0  0  0  0  0  0  0  0  0  0  0
   11.6264   -5.7265    0.0000 C   0  0  0  0  0  0  0  0  0  0  0  0
   -0.0678   -4.9386    0.0000 O   0  0  0  0  0  0  0  0  0  0  0  0
    3.8510   -1.2064    0.0000 O   0  0  0  0  0  0  0  0  0  0  0  0
    7.7387   -4.9697    0.0000 O   0  0  0  0  0  0  0  0  0  0  0  0
   11.6575   -1.2375    0.0000 O   0  0  0  0  0  0  0  0  0  0  0  0
   -2.6597   -4.9179    0.0000 C   0  0  0  0  0  0  0  0  0  0  0  0
   12.9326   -5.0008    0.0000 O   0  0  0  0  0  0  0  0  0  0  0  0
   -1.3429   -1.1753    0.0000 O   0  0  0  0  0  0  0  0  0  0  0  0
   -3.9555   -2.6786    0.0000 N   0  0  0  0  0  0  0  0  0  0  0  0
    2.5343   -4.9490    0.0000 C   0  0  0  0  0  0  0  0  0  0  0  0
    6.4635   -1.2168    0.0000 C   0  0  0  0  0  0  0  0  0  0  0  0
   12.9326   -3.4872    0.0000 O   0  0  0  0  0  0  0  0  0  0  0  0
   11.6264   -7.2401    0.0000 O   0  0  0  0  0  0  0  0  0  0  0  0
   -3.9659   -5.6643    0.0000 C   0  0  0  0  0  0  0  0  0  0  0  0
    7.7593   -0.4704    0.0000 C   0  0  0  0  0  0  0  0  0  0  0  0
    5.1573   -0.4599    0.0000 C   0  0  0  0  0  0  0  0  0  0  0  0
    1.2385   -5.6954    0.0000 C   0  0  0  0  0  0  0  0  0  0  0  0
    3.8199   -5.6954    0.0000 C   0  0  0  0  0  0  0  0  0  0  0  0
   -5.2617   -4.8868    0.0000 C   0  0  0  0  0  0  0  0  0  0  0  0
   -3.9866   -7.1572    0.0000 C   0  0  0  0  0  0  0  0  0  0  0  0
  2  8  1  0  0  0  0
  3  9  1  0  0  0  0
  4  1  1  0  0  0  0
  5  2  1  0  0  0  0
  6  1  1  0  0  0  0
  7  3  1  0  0  0  0
  8  4  1  0  0  0  0
  9  5  1  0  0  0  0
 10  7  1  0  0  0  0
 10 11  1  6  0  0  0
 12 10  1  0  0  0  0
 13  6  1  0  0  0  0
 14 11  1  0  0  0  0
 15  1  2  0  0  0  0
 16  2  2  0  0  0  0
 17  3  2  0  0  0  0
 18 12  2  0  0  0  0
 13 19  1  1  0  0  0
 20 14  2  0  0  0  0
  6 21  1  6  0  0  0
 22 13  1  0  0  0  0
  8 23  1  6  0  0  0
  9 24  1  1  0  0  0
 25 12  1  0  0  0  0
 26 14  1  0  0  0  0
 27 19  1  0  0  0  0
 28 24  1  0  0  0  0
 29 24  1  0  0  0  0
 30 23  1  0  0  0  0
 31 23  1  0  0  0  0
 32 27  1  0  0  0  0
 33 27  1  0  0  0  0
M  END
> <Value>
5.958607314841775

> <Relation>
=

> <SourceURI>
mol:CHEMBL28650

$$$$

Generated by Molecular Materials Informatics

 33 32  0  0  0  0  0  0  0  0999 V2000
   -3.4938   -2.0456    0.0000 C   0  0  0  0  0  0  0  0  0  0  0  0
    0.3809   -2.9517    0.0000 C   0  0  0  0  0  0  0  0  0  0  0  0
    4.3184   -2.4830    0.0000 C   0  0  0  0  0  0  0  0  0  0  0  0
   -2.1920   -2.7956    0.0000 N   0  0  0  0  0  0  0  0  0  0  0  0
    1.7247   -2.2851    0.0000 N   0  0  0  0  0  0  0  0  0  0  0  0
   -4.8064   -2.7956    0.0000 C   0  0  0  0  0  0  0  0  0  0  0  0
    5.5579   -3.3268    0.0000 N   0  0  0  0  0  0  0  0  0  0  0  0
   -0.8689   -2.1393    0.0000 C   0  0  0  0  0  0  0  0  0  0  0  0
    2.9746   -3.1287    0.0000 C   0  0  0  0  0  0  0  0  0  0  0  0
    6.9120   -2.6706    0.0000 C   0  0  0  0  0  0  0  0  0  0  0  0
    7.0265   -1.1706    0.0000 C   0  0  0  0  0  0  0  0  0  0  0  0
    8.1515   -3.5142    0.0000 C   0  0  0  0  0  0  0  0  0  0  0  0
   -6.0875   -2.0456    0.0000 C   0  0  0  0  0  0  0  0  0  0  0  0
    8.3702   -0.5144    0.0000 C   0  0  0  0  0  0  0  0  0  0  0  0
   -3.4938   -0.5456    0.0000 O   0  0  0  0  0  0  0  0  0  0  0  0
    0.2873   -4.4726    0.0000 O   0  0  0  0  0  0  0  0  0  0  0  0
    4.4329   -0.9831    0.0000 O   0  0  0  0  0  0  0  0  0  0  0  0
    9.5057   -2.8581    0.0000 O   0  0  0  0  0  0  0  0  0  0  0  0
   -6.0875   -0.5456    0.0000 C   0  0  0  0  0  0  0  0  0  0  0  0
    8.4952    0.9856    0.0000 O   0  0  0  0  0  0  0  0  0  0  0  0
   -4.8064   -4.2955    0.0000 O   0  0  0  0  0  0  0  0  0  0  0  0
   -7.4000   -2.7956    0.0000 N   0  0  0  0  0  0  0  0  0  0  0  0
   -0.7751   -0.6082    0.0000 C   0  0  0  0  0  0  0  0  0  0  0  0
    2.8704   -4.6080    0.0000 C   0  0  0  0  0  0  0  0  0  0  0  0
    8.0370   -5.0142    0.0000 O   0  0  0  0  0  0  0  0  0  0  0  0
    9.6202   -1.3580    0.0000 O   0  0  0  0  0  0  0  0  0  0  0  0
   -7.4000    0.2044    0.0000 C   0  0  0  0  0  0  0  0  0  0  0  0
    4.0996   -5.4412    0.0000 C   0  0  0  0  0  0  0  0  0  0  0  0
    0.5892    0.0481    0.0000 C   0  0  0  0  0  0  0  0  0  0  0  0
   -2.0252    0.2044    0.0000 C   0  0  0  0  0  0  0  0  0  0  0  0
    1.5266   -5.2642    0.0000 C   0  0  0  0  0  0  0  0  0  0  0  0
   -7.4000    1.7043    0.0000 C   0  0  0  0  0  0  0  0  0  0  0  0
   -8.6917   -0.5456    0.0000 C   0  0  0  0  0  0  0  0  0  0  0  0
  2  8  1  0  0  0  0
  3  9  1  0  0  0  0
  4  1  1  0  0  0  0
  5  2  1  0  0  0  0
  6  1  1  0  0  0  0
  7  3  1  0  0  0  0
  8  4  1  0  0  0  0
  9  5  1  0  0  0  0
 10  7  1  0  0  0  0
 10 11  1  1  0  0  0
 12 10  1  0  0  0  0
 13  6  1  0  0  0  0
 14 11  1  0  0  0  0
 15  1  2  0  0  0  0
 16  2  2  0  0  0  0
 17  3  2  0  0  0  0
 18 12  2  0  0  0  0
 13 19  1  1  0  0  0
 20 14  2  0  0  0  0
  6 21  1  6  0  0  0
 22 13  1  0  0  0  0
  8 23  1  1  0  0  0
  9 24  1  6  0  0  0
 25 12  1  0  0  0  0
 26 14  1  0  0  0  0
 27 19  1  0  0  0  0
 28 24  1  0  0  0  0
 29 23  1  0  0  0  0
 30 23  1  0  0  0  0
 31 24  1  0  0  0  0
 32 27  1  0  0  0  0
 33 27  1  0  0  0  0
M  END
> <Value>
3.3010299956639813

> <Relation>
<

> <SourceURI>
mol:CHEMBL2370764

$$$$

Generated by Molecular Materials Informatics

 22 22  0  0  0  0  0  0  0  0999 V2000
    1.2990   -0.7500    0.0000 C   0  0  0  0  0  0  0  0  0  0  0  0
    1.2990    0.7500    0.0000 C   0  0  0  0  0  0  0  0  0  0  0  0
    0.0000    1.5000    0.0000 C   0  0  0  0  0  0  0  0  0  0  0  0
   -1.2990    0.7500    0.0000 C   0  0  0  0  0  0  0  0  0  0  0  0
   -1.2990   -0.7500    0.0000 C   0  0  0  0  0  0  0  0  0  0  0  0
    0.0000   -1.5000    0.0000 C   0  0  0  0  0  0  0  0  0  0  0  0
   -2.6003    1.4977    0.0000 C   0  0  0  0  0  0  0  0  0  0  0  0
   -3.8990    0.7455    0.0000 C   0  0  0  0  0  0  0  0  0  0  0  0
   -5.2003    1.4932    0.0000 C   0  0  0  0  0  0  0  0  0  0  0  0
   -3.8969   -0.4545    0.0000 N   0  0  0  0  0  0  0  0  0  0  0  0
   -5.2024    2.6932    0.0000 O   0  0  0  0  0  0  0  0  0  0  0  0
   -6.4990    0.7409    0.0000 C   0  0  0  0  0  0  0  0  0  0  0  0
   -7.8003    1.4887    0.0000 N   0  0  0  0  0  0  0  0  0  0  0  0
   -6.4969   -0.4591    0.0000 O   0  0  0  0  0  0  0  0  0  0  0  0
   -9.0990    0.7364    0.0000 C   0  0  0  0  0  0  0  0  0  0  0  0
  -10.4003    1.4841    0.0000 C   0  0  0  0  0  0  0  0  0  0  0  0
   -9.0994   -0.7644    0.0000 C   0  0  0  0  0  0  0  0  0  0  0  0
   -8.0602   -1.3644    0.0000 O   0  0  0  0  0  0  0  0  0  0  0  0
  -10.1385   -1.3648    0.0000 O   0  0  0  0  0  0  0  0  0  0  0  0
  -11.6990    0.7318    0.0000 C   0  0  0  0  0  0  0  0  0  0  0  0
  -12.7394    1.3297    0.0000 C   0  0  0  0  0  0  0  0  0  0  0  0
  -11.6969   -0.4682    0.0000 C   0  0  0  0  0  0  0  0  0  0  0  0
  1  2  2  0  0  0  0
  2  3  1  0  0  0  0
  3  4  2  0  0  0  0
  4  5  1  0  0  0  0
  1  6  1  0  0  0  0
  5  6  2  0  0  0  0
  4  7  1  0  0  0  0
  7  8  1  0  0  0  0
  8  9  1  0  0  0  0
  8 10  1  1  0  0  0
  9 11  1  1  0  0  0
  9 12  1  0  0  0  0
 12 13  1  0  0  0  0
 12 14  2  0  0  0  0
 13 15  1  0  0  0  0
 15 16  1  0  0  0  0
 15 17  1  6  0  0  0
 17 18  1  0  0  0  0
 17 19  2  0  0  0  0
 16 20  1  0  0  0  0
 20 21  1  0  0  0  0
 20 22  1  0  0  0  0
M  END
> <Value>
5.518557371497695

> <Relation>
=

> <SourceURI>
mol:CHEMBL538595

$$$$

Generated by Molecular Materials Informatics

 15 15  0  0  0  0  0  0  0  0999 V2000
    0.3930    1.6041    0.0000 C   0  0  0  0  0  0  0  0  0  0  0  0
    1.6920    2.3585    0.0000 C   0  0  0  0  0  0  0  0  0  0  0  0
    2.9911    1.6127    0.0000 N   0  0  0  0  0  0  0  0  0  0  0  0
    4.2903    2.3669    0.0000 C   0  0  0  0  0  0  0  0  0  0  0  0
    5.5892    1.6210    0.0000 C   0  0  0  0  0  0  0  0  0  0  0  0
    6.8884    2.3754    0.0000 C   0  0  0  0  0  0  0  0  0  0  0  0
    8.1875    1.6294    0.0000 C   0  0  0  0  0  0  0  0  0  0  0  0
    0.3967    0.0956    0.0000 N   0  0  0  0  0  0  0  0  0  0  0  0
    1.6885    3.8670    0.0000 O   0  0  0  0  0  0  0  0  0  0  0  0
    5.5929    0.1125    0.0000 N   0  0  0  0  0  0  0  0  0  0  0  0
    8.1859    0.1294    0.0000 C   0  0  0  0  0  0  0  0  0  0  0  0
    9.4835   -0.6162    0.0000 C   0  0  0  0  0  0  0  0  0  0  0  0
   10.7809    0.1358    0.0000 C   0  0  0  0  0  0  0  0  0  0  0  0
   10.7725    1.6416    0.0000 C   0  0  0  0  0  0  0  0  0  0  0  0
    9.4739    2.3807    0.0000 C   0  0  0  0  0  0  0  0  0  0  0  0
  1  8  1  0  0  0  0
  2  9  2  0  0  0  0
  4  5  1  0  0  0  0
  5 10  1  1  0  0  0
  2  3  1  0  0  0  0
  7 11  2  0  0  0  0
  5  6  1  0  0  0  0
 11 12  1  0  0  0  0
  1  2  1  0  0  0  0
 12 13  2  0  0  0  0
  6  7  1  0  0  0  0
 13 14  1  0  0  0  0
  3  4  1  0  0  0  0
 14 15  2  0  0  0  0
 15  7  1  0  0  0  0
M  END
> <Value>
3.0

> <Relation>
<

> <SourceURI>
mol:CHEMBL501081

$$$$

Generated by Molecular Materials Informatics

 19 19  0  0  0  0  0  0  0  0999 V2000
   11.8226    1.0538    0.0000 C   0  0  0  0  0  0  0  0  0  0  0  0
   13.1198    1.8070    0.0000 C   0  0  0  0  0  0  0  0  0  0  0  0
   14.4168    1.0624    0.0000 N   0  0  0  0  0  0  0  0  0  0  0  0
   15.7141    1.8154    0.0000 C   0  0  0  0  0  0  0  0  0  0  0  0
   17.0111    1.0705    0.0000 C   0  0  0  0  0  0  0  0  0  0  0  0
   18.3083    1.8238    0.0000 C   0  0  0  0  0  0  0  0  0  0  0  0
   19.6055    1.0789    0.0000 C   0  0  0  0  0  0  0  0  0  0  0  0
   11.8263   -0.4524    0.0000 N   0  0  0  0  0  0  0  0  0  0  0  0
   13.1162    3.3133    0.0000 O   0  0  0  0  0  0  0  0  0  0  0  0
   17.0148   -0.4359    0.0000 N   0  0  0  0  0  0  0  0  0  0  0  0
   19.6039   -0.4188    0.0000 C   0  0  0  0  0  0  0  0  0  0  0  0
   20.8996   -1.1635    0.0000 C   0  0  0  0  0  0  0  0  0  0  0  0
   22.1951   -0.4123    0.0000 C   0  0  0  0  0  0  0  0  0  0  0  0
   22.1866    1.0911    0.0000 C   0  0  0  0  0  0  0  0  0  0  0  0
   20.8899    1.8288    0.0000 C   0  0  0  0  0  0  0  0  0  0  0  0
   10.5162    1.8038    0.0000 C   0  0  0  0  0  0  0  0  0  0  0  0
    9.2135    1.0474    0.0000 C   0  0  0  0  0  0  0  0  0  0  0  0
    7.9071    1.7974    0.0000 C   0  0  0  0  0  0  0  0  0  0  0  0
    9.2174   -0.4590    0.0000 C   0  0  0  0  0  0  0  0  0  0  0  0
  5 10  1  1  0  0  0
  2  3  1  0  0  0  0
  7 11  2  0  0  0  0
  5  6  1  0  0  0  0
 11 12  1  0  0  0  0
  1  2  1  0  0  0  0
 12 13  2  0  0  0  0
  6  7  1  0  0  0  0
 13 14  1  0  0  0  0
  3  4  1  0  0  0  0
 14 15  2  0  0  0  0
 15  7  1  0  0  0  0
  1  8  1  1  0  0  0
  1 16  1  0  0  0  0
 16 17  1  0  0  0  0
  2  9  2  0  0  0  0
 17 18  1  0  0  0  0
  4  5  1  0  0  0  0
 17 19  1  0  0  0  0
M  END
> <Value>
3.846490010699162

> <Relation>
=

> <SourceURI>
mol:CHEMBL505762

$$$$

Generated by Molecular Materials Informatics

 20 20  0  0  0  0  0  0  0  0999 V2000
    4.5935   -4.5299    0.0000 C   0  0  0  0  0  0  0  0  0  0  0  0
    5.8906   -3.7766    0.0000 C   0  0  0  0  0  0  0  0  0  0  0  0
    7.1879   -4.5213    0.0000 N   0  0  0  0  0  0  0  0  0  0  0  0
    8.4852   -3.7682    0.0000 C   0  0  0  0  0  0  0  0  0  0  0  0
    9.7824   -4.5130    0.0000 C   0  0  0  0  0  0  0  0  0  0  0  0
   11.0795   -3.7597    0.0000 C   0  0  0  0  0  0  0  0  0  0  0  0
   12.3770   -4.5048    0.0000 C   0  0  0  0  0  0  0  0  0  0  0  0
    4.5971   -6.0362    0.0000 N   0  0  0  0  0  0  0  0  0  0  0  0
    5.8871   -2.2700    0.0000 O   0  0  0  0  0  0  0  0  0  0  0  0
    9.7861   -6.0193    0.0000 N   0  0  0  0  0  0  0  0  0  0  0  0
   12.3754   -6.0026    0.0000 C   0  0  0  0  0  0  0  0  0  0  0  0
   13.6712   -6.7472    0.0000 C   0  0  0  0  0  0  0  0  0  0  0  0
   14.9667   -5.9961    0.0000 C   0  0  0  0  0  0  0  0  0  0  0  0
   14.9583   -4.4924    0.0000 C   0  0  0  0  0  0  0  0  0  0  0  0
   13.6614   -3.7544    0.0000 C   0  0  0  0  0  0  0  0  0  0  0  0
    3.2869   -3.7799    0.0000 C   0  0  0  0  0  0  0  0  0  0  0  0
    1.9840   -4.5362    0.0000 C   0  0  0  0  0  0  0  0  0  0  0  0
    0.6776   -3.7862    0.0000 C   0  0  0  0  0  0  0  0  0  0  0  0
   -0.6251   -4.5426    0.0000 C   0  0  0  0  0  0  0  0  0  0  0  0
   -1.9317   -3.7926    0.0000 N   0  0  0  0  0  0  0  0  0  0  0  0
  2  3  1  0  0  0  0
  7 11  2  0  0  0  0
  5  6  1  0  0  0  0
 11 12  1  0  0  0  0
  1  2  1  0  0  0  0
 12 13  2  0  0  0  0
  6  7  1  0  0  0  0
 13 14  1  0  0  0  0
  3  4  1  0  0  0  0
 14 15  2  0  0  0  0
 15  7  1  0  0  0  0
  1  8  1  1  0  0  0
  1 16  1  0  0  0  0
 16 17  1  0  0  0  0
  2  9  2  0  0  0  0
 17 18  1  0  0  0  0
  4  5  1  0  0  0  0
 18 19  1  0  0  0  0
  5 10  1  1  0  0  0
 19 20  1  0  0  0  0
M  END
> <Value>
3.784626847216578

> <Relation>
=

> <SourceURI>
mol:CHEMBL457648

$$$$

Generated by Molecular Materials Informatics

 19 19  0  0  0  0  0  0  0  0999 V2000
   14.0084   -4.2597    0.0000 C   0  0  0  0  0  0  0  0  0  0  0  0
   15.3058   -3.5066    0.0000 C   0  0  0  0  0  0  0  0  0  0  0  0
   16.6028   -4.2513    0.0000 N   0  0  0  0  0  0  0  0  0  0  0  0
   17.8999   -3.4981    0.0000 C   0  0  0  0  0  0  0  0  0  0  0  0
   19.1973   -4.2428    0.0000 C   0  0  0  0  0  0  0  0  0  0  0  0
   20.4944   -3.4898    0.0000 C   0  0  0  0  0  0  0  0  0  0  0  0
   21.7916   -4.2346    0.0000 C   0  0  0  0  0  0  0  0  0  0  0  0
   14.0123   -5.7662    0.0000 N   0  0  0  0  0  0  0  0  0  0  0  0
   15.3022   -2.0002    0.0000 O   0  0  0  0  0  0  0  0  0  0  0  0
   19.2009   -5.7493    0.0000 N   0  0  0  0  0  0  0  0  0  0  0  0
   21.7901   -5.7324    0.0000 C   0  0  0  0  0  0  0  0  0  0  0  0
   23.0858   -6.4769    0.0000 C   0  0  0  0  0  0  0  0  0  0  0  0
   24.3812   -5.7261    0.0000 C   0  0  0  0  0  0  0  0  0  0  0  0
   24.3728   -4.2225    0.0000 C   0  0  0  0  0  0  0  0  0  0  0  0
   23.0762   -3.4845    0.0000 C   0  0  0  0  0  0  0  0  0  0  0  0
   12.7020   -3.5097    0.0000 C   0  0  0  0  0  0  0  0  0  0  0  0
   11.3992   -4.2662    0.0000 C   0  0  0  0  0  0  0  0  0  0  0  0
   10.0930   -3.5163    0.0000 S   0  0  0  0  0  0  0  0  0  0  0  0
    8.7902   -4.2726    0.0000 C   0  0  0  0  0  0  0  0  0  0  0  0
  5 10  1  1  0  0  0
  2  3  1  0  0  0  0
  7 11  2  0  0  0  0
  5  6  1  0  0  0  0
 11 12  1  0  0  0  0
  1  2  1  0  0  0  0
 12 13  2  0  0  0  0
  6  7  1  0  0  0  0
 13 14  1  0  0  0  0
  3  4  1  0  0  0  0
 14 15  2  0  0  0  0
 15  7  1  0  0  0  0
  1  8  1  1  0  0  0
  1 16  1  0  0  0  0
 16 17  1  0  0  0  0
  2  9  2  0  0  0  0
 17 18  1  0  0  0  0
  4  5  1  0  0  0  0
 18 19  1  0  0  0  0
M  END
> <Value>
3.925549281045409

> <Relation>
=

> <SourceURI>
mol:CHEMBL457649

$$$$

Generated by Molecular Materials Informatics

 17 17  0  0  0  0  0  0  0  0999 V2000
   -6.3725   -9.2393    0.0000 C   0  0  0  0  0  0  0  0  0  0  0  0
   -5.0751   -8.4861    0.0000 C   0  0  0  0  0  0  0  0  0  0  0  0
   -3.7780   -9.2308    0.0000 N   0  0  0  0  0  0  0  0  0  0  0  0
   -2.4805   -8.4776    0.0000 C   0  0  0  0  0  0  0  0  0  0  0  0
   -1.1831   -9.2225    0.0000 C   0  0  0  0  0  0  0  0  0  0  0  0
    0.1140   -8.4692    0.0000 C   0  0  0  0  0  0  0  0  0  0  0  0
    1.4116   -9.2143    0.0000 C   0  0  0  0  0  0  0  0  0  0  0  0
   -6.3689  -10.7458    0.0000 N   0  0  0  0  0  0  0  0  0  0  0  0
   -5.0788   -6.9794    0.0000 O   0  0  0  0  0  0  0  0  0  0  0  0
   -1.1795  -10.7289    0.0000 N   0  0  0  0  0  0  0  0  0  0  0  0
    1.4099  -10.7121    0.0000 C   0  0  0  0  0  0  0  0  0  0  0  0
    2.7058  -11.4568    0.0000 C   0  0  0  0  0  0  0  0  0  0  0  0
    4.0014  -10.7057    0.0000 C   0  0  0  0  0  0  0  0  0  0  0  0
    3.9930   -9.2019    0.0000 C   0  0  0  0  0  0  0  0  0  0  0  0
    2.6962   -8.4640    0.0000 C   0  0  0  0  0  0  0  0  0  0  0  0
   -7.6791   -8.4892    0.0000 C   0  0  0  0  0  0  0  0  0  0  0  0
   -8.9821   -9.2457    0.0000 O   0  0  0  0  0  0  0  0  0  0  0  0
  2  9  2  0  0  0  0
  4  5  1  0  0  0  0
  5 10  1  1  0  0  0
  2  3  1  0  0  0  0
  7 11  2  0  0  0  0
  5  6  1  0  0  0  0
 11 12  1  0  0  0  0
  1  2  1  0  0  0  0
 12 13  2  0  0  0  0
  6  7  1  0  0  0  0
 13 14  1  0  0  0  0
  3  4  1  0  0  0  0
 14 15  2  0  0  0  0
 15  7  1  0  0  0  0
  1  8  1  1  0  0  0
  1 16  1  0  0  0  0
 16 17  1  0  0  0  0
M  END
> <Value>
4.4723700991286615

> <Relation>
=

> <SourceURI>
mol:CHEMBL458083

$$$$

Generated by Molecular Materials Informatics

 19 19  0  0  0  0  0  0  0  0999 V2000
    4.5808   -9.3237    0.0000 C   0  0  0  0  0  0  0  0  0  0  0  0
    5.8781   -8.5704    0.0000 C   0  0  0  0  0  0  0  0  0  0  0  0
    7.1753   -9.3152    0.0000 N   0  0  0  0  0  0  0  0  0  0  0  0
    8.4726   -8.5621    0.0000 C   0  0  0  0  0  0  0  0  0  0  0  0
    9.7698   -9.3070    0.0000 C   0  0  0  0  0  0  0  0  0  0  0  0
   11.0669   -8.5537    0.0000 C   0  0  0  0  0  0  0  0  0  0  0  0
   12.3643   -9.2986    0.0000 C   0  0  0  0  0  0  0  0  0  0  0  0
    4.5845  -10.8301    0.0000 N   0  0  0  0  0  0  0  0  0  0  0  0
    5.8744   -7.0639    0.0000 O   0  0  0  0  0  0  0  0  0  0  0  0
    9.7734  -10.8136    0.0000 N   0  0  0  0  0  0  0  0  0  0  0  0
   12.3627  -10.7965    0.0000 C   0  0  0  0  0  0  0  0  0  0  0  0
   13.6585  -11.5412    0.0000 C   0  0  0  0  0  0  0  0  0  0  0  0
   14.9541  -10.7899    0.0000 C   0  0  0  0  0  0  0  0  0  0  0  0
   14.9455   -9.2865    0.0000 C   0  0  0  0  0  0  0  0  0  0  0  0
   13.6488   -8.5486    0.0000 C   0  0  0  0  0  0  0  0  0  0  0  0
    3.2743   -8.5737    0.0000 C   0  0  0  0  0  0  0  0  0  0  0  0
    1.9714   -9.3301    0.0000 C   0  0  0  0  0  0  0  0  0  0  0  0
    0.6651   -8.5801    0.0000 C   0  0  0  0  0  0  0  0  0  0  0  0
   -0.6378   -9.3366    0.0000 N   0  0  0  0  0  0  0  0  0  0  0  0
  5 10  1  1  0  0  0
  2  3  1  0  0  0  0
  7 11  2  0  0  0  0
  5  6  1  0  0  0  0
 11 12  1  0  0  0  0
  1  2  1  0  0  0  0
 12 13  2  0  0  0  0
  6  7  1  0  0  0  0
 13 14  1  0  0  0  0
  3  4  1  0  0  0  0
 14 15  2  0  0  0  0
 15  7  1  0  0  0  0
  1  8  1  1  0  0  0
  1 16  1  0  0  0  0
 16 17  1  0  0  0  0
  2  9  2  0  0  0  0
 17 18  1  0  0  0  0
  4  5  1  0  0  0  0
 18 19  1  0  0  0  0
M  END
> <Value>
4.296708621881338

> <Relation>
=

> <SourceURI>
mol:CHEMBL457656

$$$$

Generated by Molecular Materials Informatics

 16 16  0  0  0  0  0  0  0  0999 V2000
   11.5902   -9.6276    0.0000 C   0  0  0  0  0  0  0  0  0  0  0  0
   12.8883   -8.8737    0.0000 C   0  0  0  0  0  0  0  0  0  0  0  0
   14.1864   -9.6191    0.0000 N   0  0  0  0  0  0  0  0  0  0  0  0
   15.4849   -8.8654    0.0000 C   0  0  0  0  0  0  0  0  0  0  0  0
   16.7830   -9.6107    0.0000 C   0  0  0  0  0  0  0  0  0  0  0  0
   18.0812   -8.8568    0.0000 C   0  0  0  0  0  0  0  0  0  0  0  0
   19.3796   -9.6025    0.0000 C   0  0  0  0  0  0  0  0  0  0  0  0
   11.5938  -11.1352    0.0000 N   0  0  0  0  0  0  0  0  0  0  0  0
   12.8847   -7.3662    0.0000 O   0  0  0  0  0  0  0  0  0  0  0  0
   16.7867  -11.1183    0.0000 N   0  0  0  0  0  0  0  0  0  0  0  0
   19.3780  -11.1014    0.0000 C   0  0  0  0  0  0  0  0  0  0  0  0
   20.6749  -11.8467    0.0000 C   0  0  0  0  0  0  0  0  0  0  0  0
   21.9713  -11.0950    0.0000 C   0  0  0  0  0  0  0  0  0  0  0  0
   21.9628   -9.5902    0.0000 C   0  0  0  0  0  0  0  0  0  0  0  0
   20.6651   -8.8518    0.0000 C   0  0  0  0  0  0  0  0  0  0  0  0
   10.2825   -8.8770    0.0000 C   0  0  0  0  0  0  0  0  0  0  0  0
  2  9  2  0  0  0  0
  4  5  1  0  0  0  0
  5 10  1  1  0  0  0
  2  3  1  0  0  0  0
  7 11  2  0  0  0  0
  5  6  1  0  0  0  0
 11 12  1  0  0  0  0
  1  2  1  0  0  0  0
 12 13  2  0  0  0  0
  6  7  1  0  0  0  0
 13 14  1  0  0  0  0
  3  4  1  0  0  0  0
 14 15  2  0  0  0  0
 15  7  1  0  0  0  0
  1  8  1  1  0  0  0
  1 16  1  0  0  0  0
M  END
> <Value>
3.0

> <Relation>
<

> <SourceURI>
mol:CHEMBL457657

$$$$

Generated by Molecular Materials Informatics

 17 17  0  0  0  0  0  0  0  0999 V2000
    3.9130  -14.1951    0.0000 C   0  0  0  0  0  0  0  0  0  0  0  0
    5.2101  -13.4419    0.0000 C   0  0  0  0  0  0  0  0  0  0  0  0
    6.5077  -14.1869    0.0000 N   0  0  0  0  0  0  0  0  0  0  0  0
    7.8050  -13.4337    0.0000 C   0  0  0  0  0  0  0  0  0  0  0  0
    9.1022  -14.1786    0.0000 C   0  0  0  0  0  0  0  0  0  0  0  0
   10.3997  -13.4252    0.0000 C   0  0  0  0  0  0  0  0  0  0  0  0
   11.6968  -14.1701    0.0000 C   0  0  0  0  0  0  0  0  0  0  0  0
    3.9168  -15.7018    0.0000 N   0  0  0  0  0  0  0  0  0  0  0  0
    5.2067  -11.9354    0.0000 O   0  0  0  0  0  0  0  0  0  0  0  0
    9.1058  -15.6851    0.0000 N   0  0  0  0  0  0  0  0  0  0  0  0
   11.6956  -15.6680    0.0000 C   0  0  0  0  0  0  0  0  0  0  0  0
   12.9911  -16.4129    0.0000 C   0  0  0  0  0  0  0  0  0  0  0  0
   14.2868  -15.6618    0.0000 C   0  0  0  0  0  0  0  0  0  0  0  0
   14.2785  -14.1581    0.0000 C   0  0  0  0  0  0  0  0  0  0  0  0
   12.9815  -13.4201    0.0000 C   0  0  0  0  0  0  0  0  0  0  0  0
    2.6066  -13.4451    0.0000 C   0  0  0  0  0  0  0  0  0  0  0  0
    1.3036  -14.2017    0.0000 S   0  0  0  0  0  0  0  0  0  0  0  0
  2  9  2  0  0  0  0
  4  5  1  0  0  0  0
  5 10  1  1  0  0  0
  2  3  1  0  0  0  0
  7 11  2  0  0  0  0
  5  6  1  0  0  0  0
 11 12  1  0  0  0  0
  1  2  1  0  0  0  0
 12 13  2  0  0  0  0
  6  7  1  0  0  0  0
 13 14  1  0  0  0  0
  3  4  1  0  0  0  0
 14 15  2  0  0  0  0
 15  7  1  0  0  0  0
  1  8  1  1  0  0  0
  1 16  1  0  0  0  0
 16 17  1  0  0  0  0
M  END
> <Value>
4.675717544702307

> <Relation>
=

> <SourceURI>
mol:CHEMBL457867

$$$$

Generated by Molecular Materials Informatics

 16 16  0  0  0  0  0  0  0  0999 V2000
   13.1880  -13.8910    0.0000 C   0  0  0  0  0  0  0  0  0  0  0  0
   14.4863  -14.6363    0.0000 N   0  0  0  0  0  0  0  0  0  0  0  0
   15.7845  -13.8826    0.0000 C   0  0  0  0  0  0  0  0  0  0  0  0
   17.0829  -14.6281    0.0000 C   0  0  0  0  0  0  0  0  0  0  0  0
   18.3809  -13.8743    0.0000 C   0  0  0  0  0  0  0  0  0  0  0  0
   19.6791  -14.6197    0.0000 C   0  0  0  0  0  0  0  0  0  0  0  0
   13.1846  -12.3833    0.0000 O   0  0  0  0  0  0  0  0  0  0  0  0
   17.0863  -16.1358    0.0000 N   0  0  0  0  0  0  0  0  0  0  0  0
   19.6777  -16.1187    0.0000 C   0  0  0  0  0  0  0  0  0  0  0  0
   20.9745  -16.8640    0.0000 C   0  0  0  0  0  0  0  0  0  0  0  0
   22.2709  -16.1121    0.0000 C   0  0  0  0  0  0  0  0  0  0  0  0
   22.2625  -14.6076    0.0000 C   0  0  0  0  0  0  0  0  0  0  0  0
   20.9648  -13.8690    0.0000 C   0  0  0  0  0  0  0  0  0  0  0  0
   11.8842  -14.6481    0.0000 C   0  0  0  0  0  0  0  0  0  0  0  0
   10.5767  -13.8972    0.0000 C   0  0  0  0  0  0  0  0  0  0  0  0
    9.2728  -14.6543    0.0000 N   0  0  0  0  0  0  0  0  0  0  0  0
  6  9  2  0  0  0  0
  4  5  1  0  0  0  0
  9 10  1  0  0  0  0
  2  3  1  0  0  0  0
 10 11  2  0  0  0  0
  5  6  1  0  0  0  0
 11 12  1  0  0  0  0
  1  2  1  0  0  0  0
 12 13  2  0  0  0  0
 13  6  1  0  0  0  0
  1  7  2  0  0  0  0
  1 14  1  0  0  0  0
  3  4  1  0  0  0  0
 14 15  1  0  0  0  0
  4  8  1  1  0  0  0
 15 16  1  0  0  0  0
M  END
> <Value>
3.388701637703571

> <Relation>
=

> <SourceURI>
mol:CHEMBL442587

$$$$

Generated by Molecular Materials Informatics

 19 19  0  0  0  0  0  0  0  0999 V2000
   -0.9527  -17.9403    0.0000 C   0  0  0  0  0  0  0  0  0  0  0  0
    0.3443  -18.6850    0.0000 N   0  0  0  0  0  0  0  0  0  0  0  0
    1.6415  -17.9318    0.0000 C   0  0  0  0  0  0  0  0  0  0  0  0
    2.9386  -18.6768    0.0000 C   0  0  0  0  0  0  0  0  0  0  0  0
    4.2358  -17.9236    0.0000 C   0  0  0  0  0  0  0  0  0  0  0  0
    5.5328  -18.6683    0.0000 C   0  0  0  0  0  0  0  0  0  0  0  0
   -0.9563  -16.4339    0.0000 O   0  0  0  0  0  0  0  0  0  0  0  0
    2.9423  -20.1831    0.0000 N   0  0  0  0  0  0  0  0  0  0  0  0
    5.5313  -20.1660    0.0000 C   0  0  0  0  0  0  0  0  0  0  0  0
    6.8271  -20.9108    0.0000 C   0  0  0  0  0  0  0  0  0  0  0  0
    8.1222  -20.1596    0.0000 C   0  0  0  0  0  0  0  0  0  0  0  0
    8.1141  -18.6563    0.0000 C   0  0  0  0  0  0  0  0  0  0  0  0
    6.8174  -17.9183    0.0000 C   0  0  0  0  0  0  0  0  0  0  0  0
   -2.2557  -18.6966    0.0000 C   0  0  0  0  0  0  0  0  0  0  0  0
   -3.5620  -17.9465    0.0000 C   0  0  0  0  0  0  0  0  0  0  0  0
   -4.8646  -18.7028    0.0000 C   0  0  0  0  0  0  0  0  0  0  0  0
   -6.1709  -17.9527    0.0000 C   0  0  0  0  0  0  0  0  0  0  0  0
   -7.4737  -18.7090    0.0000 C   0  0  0  0  0  0  0  0  0  0  0  0
   -8.7799  -17.9589    0.0000 N   0  0  0  0  0  0  0  0  0  0  0  0
  9 10  1  0  0  0  0
  2  3  1  0  0  0  0
 10 11  2  0  0  0  0
  5  6  1  0  0  0  0
 11 12  1  0  0  0  0
  1  2  1  0  0  0  0
 12 13  2  0  0  0  0
 13  6  1  0  0  0  0
  1  7  2  0  0  0  0
  1 14  1  0  0  0  0
  3  4  1  0  0  0  0
 14 15  1  0  0  0  0
  4  8  1  1  0  0  0
 15 16  1  0  0  0  0
 16 17  1  0  0  0  0
  6  9  2  0  0  0  0
 17 18  1  0  0  0  0
  4  5  1  0  0  0  0
 18 19  1  0  0  0  0
M  END
> <Value>
3.784362436564938

> <Relation>
=

> <SourceURI>
mol:CHEMBL448755

$$$$

Generated by Molecular Materials Informatics

 21 22  0  0  0  0  0  0  0  0999 V2000
   -0.6443  -23.1374    0.0000 C   0  0  0  0  0  0  0  0  0  0  0  0
    0.6517  -23.8817    0.0000 N   0  0  0  0  0  0  0  0  0  0  0  0
    1.9478  -23.1292    0.0000 C   0  0  0  0  0  0  0  0  0  0  0  0
    3.2438  -23.8732    0.0000 C   0  0  0  0  0  0  0  0  0  0  0  0
    4.5396  -23.1206    0.0000 C   0  0  0  0  0  0  0  0  0  0  0  0
    5.8357  -23.8648    0.0000 C   0  0  0  0  0  0  0  0  0  0  0  0
   -0.6479  -21.6323    0.0000 O   0  0  0  0  0  0  0  0  0  0  0  0
    3.2474  -25.3782    0.0000 N   0  0  0  0  0  0  0  0  0  0  0  0
    5.8341  -25.3611    0.0000 C   0  0  0  0  0  0  0  0  0  0  0  0
    7.1288  -26.1053    0.0000 C   0  0  0  0  0  0  0  0  0  0  0  0
    8.4231  -25.3549    0.0000 C   0  0  0  0  0  0  0  0  0  0  0  0
    8.4145  -23.8528    0.0000 C   0  0  0  0  0  0  0  0  0  0  0  0
    7.1191  -23.1156    0.0000 C   0  0  0  0  0  0  0  0  0  0  0  0
   -1.9459  -23.8930    0.0000 C   0  0  0  0  0  0  0  0  0  0  0  0
   -3.2509  -23.1436    0.0000 C   0  0  0  0  0  0  0  0  0  0  0  0
   -4.5527  -23.8994    0.0000 C   0  0  0  0  0  0  0  0  0  0  0  0
   -5.8539  -23.1414    0.0000 C   0  0  0  0  0  0  0  0  0  0  0  0
   -7.1548  -23.8957    0.0000 C   0  0  0  0  0  0  0  0  0  0  0  0
   -7.1519  -25.4022    0.0000 C   0  0  0  0  0  0  0  0  0  0  0  0
   -5.8376  -26.1515    0.0000 C   0  0  0  0  0  0  0  0  0  0  0  0
   -4.5421  -25.3928    0.0000 C   0  0  0  0  0  0  0  0  0  0  0  0
 10 11  2  0  0  0  0
  5  6  1  0  0  0  0
 11 12  1  0  0  0  0
  1  2  1  0  0  0  0
 12 13  2  0  0  0  0
 13  6  1  0  0  0  0
  1  7  2  0  0  0  0
  1 14  1  0  0  0  0
  3  4  1  0  0  0  0
 14 15  2  0  0  0  0
  4  8  1  1  0  0  0
 15 16  1  0  0  0  0
 16 17  2  0  0  0  0
  6  9  2  0  0  0  0
 17 18  1  0  0  0  0
  4  5  1  0  0  0  0
 18 19  2  0  0  0  0
  9 10  1  0  0  0  0
 19 20  1  0  0  0  0
  2  3  1  0  0  0  0
 20 21  2  0  0  0  0
 21 16  1  0  0  0  0
M  END
> <Value>
3.224899501120975

> <Relation>
=

> <SourceURI>
mol:CHEMBL451473

$$$$

Generated by Molecular Materials Informatics

 22 23  0  0  0  0  0  0  0  0999 V2000
   -1.3200    0.3014    0.0000 C   0  0  0  0  0  0  0  0  0  0  0  0
   -0.0248   -0.4421    0.0000 N   0  0  0  0  0  0  0  0  0  0  0  0
    1.2701    0.3100    0.0000 C   0  0  0  0  0  0  0  0  0  0  0  0
    2.5651   -0.4337    0.0000 C   0  0  0  0  0  0  0  0  0  0  0  0
    3.8601    0.3181    0.0000 C   0  0  0  0  0  0  0  0  0  0  0  0
    5.1551   -0.4254    0.0000 C   0  0  0  0  0  0  0  0  0  0  0  0
   -1.3236    1.8053    0.0000 O   0  0  0  0  0  0  0  0  0  0  0  0
    2.5686   -1.9376    0.0000 N   0  0  0  0  0  0  0  0  0  0  0  0
    5.1538   -1.9207    0.0000 C   0  0  0  0  0  0  0  0  0  0  0  0
    6.4472   -2.6642    0.0000 C   0  0  0  0  0  0  0  0  0  0  0  0
    7.7405   -1.9142    0.0000 C   0  0  0  0  0  0  0  0  0  0  0  0
    7.7319   -0.4134    0.0000 C   0  0  0  0  0  0  0  0  0  0  0  0
    6.4375    0.3234    0.0000 C   0  0  0  0  0  0  0  0  0  0  0  0
   -2.6206   -0.4537    0.0000 C   0  0  0  0  0  0  0  0  0  0  0  0
   -3.9247    0.2952    0.0000 C   0  0  0  0  0  0  0  0  0  0  0  0
   -5.2253   -0.4599    0.0000 C   0  0  0  0  0  0  0  0  0  0  0  0
   -6.5294    0.2891    0.0000 C   0  0  0  0  0  0  0  0  0  0  0  0
   -6.5244    1.7911    0.0000 C   0  0  0  0  0  0  0  0  0  0  0  0
   -7.8272    2.5399    0.0000 C   0  0  0  0  0  0  0  0  0  0  0  0
   -9.1295    1.7848    0.0000 C   0  0  0  0  0  0  0  0  0  0  0  0
   -9.1211    0.2730    0.0000 C   0  0  0  0  0  0  0  0  0  0  0  0
   -7.8174   -0.4688    0.0000 C   0  0  0  0  0  0  0  0  0  0  0  0
  5  6  1  0  0  0  0
 11 12  1  0  0  0  0
  1  2  1  0  0  0  0
 12 13  2  0  0  0  0
 13  6  1  0  0  0  0
  1  7  2  0  0  0  0
  1 14  1  0  0  0  0
  3  4  1  0  0  0  0
 14 15  1  0  0  0  0
  4  8  1  1  0  0  0
 15 16  1  0  0  0  0
 16 17  1  0  0  0  0
  6  9  2  0  0  0  0
 17 18  2  0  0  0  0
  4  5  1  0  0  0  0
 18 19  1  0  0  0  0
  9 10  1  0  0  0  0
 19 20  2  0  0  0  0
  2  3  1  0  0  0  0
 20 21  1  0  0  0  0
 10 11  2  0  0  0  0
 21 22  2  0  0  0  0
 22 17  1  0  0  0  0
M  END
> <Value>
3.0

> <Relation>
<

> <SourceURI>
mol:CHEMBL459757

$$$$

Generated by Molecular Materials Informatics

 29 31  0  0  0  0  0  0  0  0999 V2000
    9.2367    1.9778    0.0000 C   0  0  0  0  0  0  0  0  0  0  0  0
    9.2418    3.4777    0.0000 C   0  0  0  0  0  0  0  0  0  0  0  0
    7.9411    4.2254    0.0000 C   0  0  0  0  0  0  0  0  0  0  0  0
    6.6406    3.4714    0.0000 C   0  0  0  0  0  0  0  0  0  0  0  0
    6.6489    1.9618    0.0000 C   0  0  0  0  0  0  0  0  0  0  0  0
    7.9507    1.2210    0.0000 C   0  0  0  0  0  0  0  0  0  0  0  0
   11.8446    1.9901    0.0000 C   0  0  0  0  0  0  0  0  0  0  0  0
   13.1377    1.2477    0.0000 N   0  0  0  0  0  0  0  0  0  0  0  0
   14.4308    1.9986    0.0000 C   0  0  0  0  0  0  0  0  0  0  0  0
   15.7241    1.2561    0.0000 C   0  0  0  0  0  0  0  0  0  0  0  0
   17.0172    2.0070    0.0000 C   0  0  0  0  0  0  0  0  0  0  0  0
   18.3103    1.2643    0.0000 C   0  0  0  0  0  0  0  0  0  0  0  0
   11.8409    3.4919    0.0000 O   0  0  0  0  0  0  0  0  0  0  0  0
   15.7277   -0.2457    0.0000 N   0  0  0  0  0  0  0  0  0  0  0  0
   18.3090   -0.2288    0.0000 C   0  0  0  0  0  0  0  0  0  0  0  0
   19.6006   -0.9712    0.0000 C   0  0  0  0  0  0  0  0  0  0  0  0
   20.8919   -0.2225    0.0000 C   0  0  0  0  0  0  0  0  0  0  0  0
   20.8838    1.2766    0.0000 C   0  0  0  0  0  0  0  0  0  0  0  0
   19.5910    2.0123    0.0000 C   0  0  0  0  0  0  0  0  0  0  0  0
   10.5455    1.2363    0.0000 C   0  0  0  0  0  0  0  0  0  0  0  0
    7.9616   -0.2808    0.0000 N   0  0  0  0  0  0  0  0  0  0  0  0
    6.6665   -1.0409    0.0000 C   0  0  0  0  0  0  0  0  0  0  0  0
    5.3651   -0.2929    0.0000 C   0  0  0  0  0  0  0  0  0  0  0  0
    4.0709   -1.0520    0.0000 C   0  0  0  0  0  0  0  0  0  0  0  0
    4.0809   -2.5555    0.0000 C   0  0  0  0  0  0  0  0  0  0  0  0
    5.3961   -3.2964    0.0000 C   0  0  0  0  0  0  0  0  0  0  0  0
    6.6851   -2.5329    0.0000 C   0  0  0  0  0  0  0  0  0  0  0  0
    7.9941   -3.2686    0.0000 Cl  0  0  0  0  0  0  0  0  0  0  0  0
    5.3583    1.2089    0.0000 Cl  0  0  0  0  0  0  0  0  0  0  0  0
 12 15  2  0  0  0  0
  7  8  1  0  0  0  0
 15 16  1  0  0  0  0
 16 17  2  0  0  0  0
  8  9  1  0  0  0  0
 17 18  1  0  0  0  0
  4  5  1  0  0  0  0
 18 19  2  0  0  0  0
 19 12  1  0  0  0  0
  9 10  1  0  0  0  0
  7 20  1  0  0  0  0
 20  1  1  0  0  0  0
  2  3  1  0  0  0  0
  6 21  1  0  0  0  0
 10 11  1  0  0  0  0
 21 22  1  0  0  0  0
  5  6  2  0  0  0  0
 22 23  2  0  0  0  0
 11 12  1  0  0  0  0
 23 24  1  0  0  0  0
  6  1  1  0  0  0  0
 24 25  2  0  0  0  0
  7 13  2  0  0  0  0
 25 26  1  0  0  0  0
  1  2  2  0  0  0  0
 26 27  2  0  0  0  0
 27 22  1  0  0  0  0
 10 14  1  1  0  0  0
 27 28  1  0  0  0  0
  3  4  2  0  0  0  0
 23 29  1  0  0  0  0
M  END
> <Value>
3.0

> <Relation>
<

> <SourceURI>
mol:CHEMBL449790

$$$$

Generated by Molecular Materials Informatics

 23 24  0  0  0  0  0  0  0  0999 V2000
   -0.8740   -6.2853    0.0000 C   0  0  0  0  0  0  0  0  0  0  0  0
    0.4203   -7.0287    0.0000 N   0  0  0  0  0  0  0  0  0  0  0  0
    1.7149   -6.2770    0.0000 C   0  0  0  0  0  0  0  0  0  0  0  0
    3.0093   -7.0203    0.0000 C   0  0  0  0  0  0  0  0  0  0  0  0
    4.3037   -6.2686    0.0000 C   0  0  0  0  0  0  0  0  0  0  0  0
    5.5985   -7.0118    0.0000 C   0  0  0  0  0  0  0  0  0  0  0  0
   -0.8775   -4.7819    0.0000 O   0  0  0  0  0  0  0  0  0  0  0  0
    3.0130   -8.5235    0.0000 N   0  0  0  0  0  0  0  0  0  0  0  0
    5.5968   -8.5065    0.0000 C   0  0  0  0  0  0  0  0  0  0  0  0
    6.8898   -9.2496    0.0000 C   0  0  0  0  0  0  0  0  0  0  0  0
    8.1826   -8.5003    0.0000 C   0  0  0  0  0  0  0  0  0  0  0  0
    8.1742   -6.9998    0.0000 C   0  0  0  0  0  0  0  0  0  0  0  0
    6.8802   -6.2633    0.0000 C   0  0  0  0  0  0  0  0  0  0  0  0
   -2.1741   -7.0401    0.0000 C   0  0  0  0  0  0  0  0  0  0  0  0
   -3.4776   -6.2915    0.0000 C   0  0  0  0  0  0  0  0  0  0  0  0
   -4.7778   -7.0463    0.0000 C   0  0  0  0  0  0  0  0  0  0  0  0
   -6.0776   -6.2893    0.0000 C   0  0  0  0  0  0  0  0  0  0  0  0
   -7.3767   -7.0427    0.0000 C   0  0  0  0  0  0  0  0  0  0  0  0
   -7.3740   -8.5475    0.0000 C   0  0  0  0  0  0  0  0  0  0  0  0
   -6.0613   -9.2958    0.0000 C   0  0  0  0  0  0  0  0  0  0  0  0
   -4.7674   -8.5379    0.0000 C   0  0  0  0  0  0  0  0  0  0  0  0
   -8.6730   -9.3040    0.0000 O   0  0  0  0  0  0  0  0  0  0  0  0
   -8.6800   -6.2935    0.0000 O   0  0  0  0  0  0  0  0  0  0  0  0
 11 12  1  0  0  0  0
  1  2  1  0  0  0  0
 12 13  2  0  0  0  0
 13  6  1  0  0  0  0
  1  7  2  0  0  0  0
  1 14  1  0  0  0  0
  3  4  1  0  0  0  0
 14 15  2  0  0  0  0
  4  8  1  1  0  0  0
 15 16  1  0  0  0  0
 16 17  2  0  0  0  0
  6  9  2  0  0  0  0
 17 18  1  0  0  0  0
  4  5  1  0  0  0  0
 18 19  2  0  0  0  0
  9 10  1  0  0  0  0
 19 20  1  0  0  0  0
  2  3  1  0  0  0  0
 20 21  2  0  0  0  0
 21 16  1  0  0  0  0
 10 11  2  0  0  0  0
 19 22  1  0  0  0  0
  5  6  1  0  0  0  0
 18 23  1  0  0  0  0
M  END
> <Value>
3.3082114755973016

> <Relation>
=

> <SourceURI>
mol:CHEMBL445758

$$$$

Generated by Molecular Materials Informatics

 25 26  0  0  0  0  0  0  0  0999 V2000
   -1.8510  -12.7209    0.0000 C   0  0  0  0  0  0  0  0  0  0  0  0
   -0.5577  -13.4636    0.0000 N   0  0  0  0  0  0  0  0  0  0  0  0
    0.7358  -12.7125    0.0000 C   0  0  0  0  0  0  0  0  0  0  0  0
    2.0293  -13.4551    0.0000 C   0  0  0  0  0  0  0  0  0  0  0  0
    3.3228  -12.7042    0.0000 C   0  0  0  0  0  0  0  0  0  0  0  0
    4.6161  -13.4469    0.0000 C   0  0  0  0  0  0  0  0  0  0  0  0
   -1.8546  -11.2189    0.0000 O   0  0  0  0  0  0  0  0  0  0  0  0
    2.0329  -14.9572    0.0000 N   0  0  0  0  0  0  0  0  0  0  0  0
    4.6146  -14.9404    0.0000 C   0  0  0  0  0  0  0  0  0  0  0  0
    5.9067  -15.6828    0.0000 C   0  0  0  0  0  0  0  0  0  0  0  0
    7.1982  -14.9340    0.0000 C   0  0  0  0  0  0  0  0  0  0  0  0
    7.1900  -13.4348    0.0000 C   0  0  0  0  0  0  0  0  0  0  0  0
    5.8971  -12.6989    0.0000 C   0  0  0  0  0  0  0  0  0  0  0  0
   -3.1503  -13.4750    0.0000 C   0  0  0  0  0  0  0  0  0  0  0  0
   -4.4481  -12.7209    0.0000 C   0  0  0  0  0  0  0  0  0  0  0  0
   -5.7463  -13.4738    0.0000 C   0  0  0  0  0  0  0  0  0  0  0  0
   -5.7436  -14.9774    0.0000 C   0  0  0  0  0  0  0  0  0  0  0  0
   -4.4318  -15.7250    0.0000 C   0  0  0  0  0  0  0  0  0  0  0  0
   -3.1391  -14.9678    0.0000 C   0  0  0  0  0  0  0  0  0  0  0  0
   -4.4171  -17.2306    0.0000 N   0  3  0  0  0  0  0  0  0  0  0  0
   -3.1119  -17.9737    0.0000 O   0  0  0  0  0  0  0  0  0  0  0  0
   -5.7134  -17.9893    0.0000 O   0  5  0  0  0  0  0  0  0  0  0  0
   -7.0520  -12.7221    0.0000 N   0  3  0  0  0  0  0  0  0  0  0  0
   -8.3515  -13.4756    0.0000 O   0  0  0  0  0  0  0  0  0  0  0  0
   -7.0549  -11.2200    0.0000 O   0  5  0  0  0  0  0  0  0  0  0  0
 12 13  2  0  0  0  0
 13  6  1  0  0  0  0
  1  7  2  0  0  0  0
  1 14  1  0  0  0  0
  3  4  1  0  0  0  0
 14 15  2  0  0  0  0
  4  8  1  1  0  0  0
 15 16  1  0  0  0  0
 16 17  2  0  0  0  0
  6  9  2  0  0  0  0
 17 18  1  0  0  0  0
  4  5  1  0  0  0  0
 18 19  2  0  0  0  0
 19 14  1  0  0  0  0
  9 10  1  0  0  0  0
  2  3  1  0  0  0  0
 10 11  2  0  0  0  0
 20 21  2  0  0  0  0
 20 22  1  0  0  0  0
 18 20  1  0  0  0  0
  5  6  1  0  0  0  0
 11 12  1  0  0  0  0
  1  2  1  0  0  0  0
 23 24  2  0  0  0  0
 23 25  1  0  0  0  0
 16 23  1  0  0  0  0
M  CHG  4  20   1  22  -1  23   1  25  -1
M  END
> <Value>
3.6893066876566394

> <Relation>
=

> <SourceURI>
mol:CHEMBL457448

$$$$

Generated by Molecular Materials Informatics

 18 18  0  0  0  0  0  0  0  0999 V2000
   -6.6946   -4.4764    0.0000 C   0  0  0  0  0  0  0  0  0  0  0  0
   -5.3974   -3.7232    0.0000 C   0  0  0  0  0  0  0  0  0  0  0  0
   -4.1001   -4.4679    0.0000 N   0  0  0  0  0  0  0  0  0  0  0  0
   -2.8029   -3.7146    0.0000 C   0  0  0  0  0  0  0  0  0  0  0  0
   -1.5059   -4.4597    0.0000 C   0  0  0  0  0  0  0  0  0  0  0  0
   -0.2086   -3.7065    0.0000 C   0  0  0  0  0  0  0  0  0  0  0  0
    1.0886   -4.4512    0.0000 C   0  0  0  0  0  0  0  0  0  0  0  0
   -6.6907   -5.9827    0.0000 N   0  0  0  0  0  0  0  0  0  0  0  0
   -5.4010   -2.2167    0.0000 O   0  0  0  0  0  0  0  0  0  0  0  0
   -1.5023   -5.9660    0.0000 N   0  0  0  0  0  0  0  0  0  0  0  0
    1.0871   -5.9489    0.0000 C   0  0  0  0  0  0  0  0  0  0  0  0
    2.3827   -6.6938    0.0000 C   0  0  0  0  0  0  0  0  0  0  0  0
    3.6782   -5.9426    0.0000 C   0  0  0  0  0  0  0  0  0  0  0  0
    3.6698   -4.4392    0.0000 C   0  0  0  0  0  0  0  0  0  0  0  0
    2.3730   -3.7012    0.0000 C   0  0  0  0  0  0  0  0  0  0  0  0
   -8.0008   -3.7262    0.0000 C   0  0  0  0  0  0  0  0  0  0  0  0
   -8.0048   -2.2199    0.0000 C   0  0  0  0  0  0  0  0  0  0  0  0
   -9.3036   -4.4828    0.0000 C   0  0  0  0  0  0  0  0  0  0  0  0
  4  5  1  0  0  0  0
  5 10  1  1  0  0  0
  2  3  1  0  0  0  0
  7 11  2  0  0  0  0
  5  6  1  0  0  0  0
 11 12  1  0  0  0  0
  1  2  1  0  0  0  0
 12 13  2  0  0  0  0
  6  7  1  0  0  0  0
 13 14  1  0  0  0  0
  3  4  1  0  0  0  0
 14 15  2  0  0  0  0
 15  7  1  0  0  0  0
  1  8  1  1  0  0  0
  1 16  1  0  0  0  0
 16 17  1  0  0  0  0
  2  9  2  0  0  0  0
 16 18  1  0  0  0  0
M  END
> <Value>
3.322393047279507

> <Relation>
=

> <SourceURI>
mol:CHEMBL457427

$$$$

Generated by Molecular Materials Informatics

 20 20  0  0  0  0  0  0  0  0999 V2000
   -4.1239  -13.9569    0.0000 C   0  0  0  0  0  0  0  0  0  0  0  0
   -2.8268  -13.2038    0.0000 C   0  0  0  0  0  0  0  0  0  0  0  0
   -1.5299  -13.9484    0.0000 N   0  0  0  0  0  0  0  0  0  0  0  0
   -0.2326  -13.1952    0.0000 C   0  0  0  0  0  0  0  0  0  0  0  0
    1.0644  -13.9402    0.0000 C   0  0  0  0  0  0  0  0  0  0  0  0
    2.3615  -13.1870    0.0000 C   0  0  0  0  0  0  0  0  0  0  0  0
    3.6586  -13.9317    0.0000 C   0  0  0  0  0  0  0  0  0  0  0  0
   -4.1202  -15.4631    0.0000 N   0  0  0  0  0  0  0  0  0  0  0  0
   -2.8304  -11.6974    0.0000 O   0  0  0  0  0  0  0  0  0  0  0  0
    1.0680  -15.4464    0.0000 N   0  0  0  0  0  0  0  0  0  0  0  0
    3.6569  -15.4293    0.0000 C   0  0  0  0  0  0  0  0  0  0  0  0
    4.9526  -16.1741    0.0000 C   0  0  0  0  0  0  0  0  0  0  0  0
    6.2481  -15.4229    0.0000 C   0  0  0  0  0  0  0  0  0  0  0  0
    6.2395  -13.9197    0.0000 C   0  0  0  0  0  0  0  0  0  0  0  0
    4.9430  -13.1818    0.0000 C   0  0  0  0  0  0  0  0  0  0  0  0
   -5.4303  -13.2068    0.0000 C   0  0  0  0  0  0  0  0  0  0  0  0
   -6.7328  -13.9633    0.0000 C   0  0  0  0  0  0  0  0  0  0  0  0
   -8.0390  -13.2134    0.0000 C   0  0  0  0  0  0  0  0  0  0  0  0
   -9.3418  -13.9697    0.0000 N   0  0  0  0  0  0  0  0  0  0  0  0
   -8.0428  -11.7070    0.0000 O   0  0  0  0  0  0  0  0  0  0  0  0
  2  3  1  0  0  0  0
  7 11  2  0  0  0  0
  5  6  1  0  0  0  0
 11 12  1  0  0  0  0
  1  2  1  0  0  0  0
 12 13  2  0  0  0  0
  6  7  1  0  0  0  0
 13 14  1  0  0  0  0
  3  4  1  0  0  0  0
 14 15  2  0  0  0  0
 15  7  1  0  0  0  0
  1  8  1  1  0  0  0
  1 16  1  0  0  0  0
 16 17  1  0  0  0  0
  2  9  2  0  0  0  0
 17 18  1  0  0  0  0
  4  5  1  0  0  0  0
 18 19  1  0  0  0  0
  5 10  1  1  0  0  0
 18 20  2  0  0  0  0
M  END
> <Value>
3.0

> <Relation>
<

> <SourceURI>
mol:CHEMBL457658

$$$$

Generated by Molecular Materials Informatics

 21 22  0  0  0  0  0  0  0  0999 V2000
   10.4123  -17.9699    0.0000 C   0  0  0  0  0  0  0  0  0  0  0  0
   11.7083  -18.7141    0.0000 N   0  0  0  0  0  0  0  0  0  0  0  0
   13.0044  -17.9616    0.0000 C   0  0  0  0  0  0  0  0  0  0  0  0
   14.3006  -18.7059    0.0000 C   0  0  0  0  0  0  0  0  0  0  0  0
   15.5967  -17.9534    0.0000 C   0  0  0  0  0  0  0  0  0  0  0  0
   16.8927  -18.6975    0.0000 C   0  0  0  0  0  0  0  0  0  0  0  0
   10.4087  -16.4649    0.0000 O   0  0  0  0  0  0  0  0  0  0  0  0
   14.3042  -20.2111    0.0000 N   0  0  0  0  0  0  0  0  0  0  0  0
   16.8914  -20.1941    0.0000 C   0  0  0  0  0  0  0  0  0  0  0  0
   18.1859  -20.9382    0.0000 C   0  0  0  0  0  0  0  0  0  0  0  0
   19.4802  -20.1877    0.0000 C   0  0  0  0  0  0  0  0  0  0  0  0
   19.4721  -18.6854    0.0000 C   0  0  0  0  0  0  0  0  0  0  0  0
   18.1763  -17.9481    0.0000 C   0  0  0  0  0  0  0  0  0  0  0  0
    9.1106  -18.7257    0.0000 C   0  0  0  0  0  0  0  0  0  0  0  0
    7.8051  -17.9763    0.0000 C   0  0  0  0  0  0  0  0  0  0  0  0
    6.5035  -18.7321    0.0000 C   0  0  0  0  0  0  0  0  0  0  0  0
    5.2021  -17.9738    0.0000 C   0  0  0  0  0  0  0  0  0  0  0  0
    3.9013  -18.7283    0.0000 C   0  0  0  0  0  0  0  0  0  0  0  0
    3.9040  -20.2351    0.0000 C   0  0  0  0  0  0  0  0  0  0  0  0
    5.2185  -20.9842    0.0000 C   0  0  0  0  0  0  0  0  0  0  0  0
    6.5139  -20.2255    0.0000 C   0  0  0  0  0  0  0  0  0  0  0  0
 10 11  2  0  0  0  0
  5  6  1  0  0  0  0
 11 12  1  0  0  0  0
  1  2  1  0  0  0  0
 12 13  2  0  0  0  0
 13  6  1  0  0  0  0
  1  7  2  0  0  0  0
  1 14  1  0  0  0  0
  3  4  1  0  0  0  0
 14 15  1  0  0  0  0
  4  8  1  1  0  0  0
 15 16  1  0  0  0  0
 16 17  2  0  0  0  0
  6  9  2  0  0  0  0
 17 18  1  0  0  0  0
  4  5  1  0  0  0  0
 18 19  2  0  0  0  0
  9 10  1  0  0  0  0
 19 20  1  0  0  0  0
  2  3  1  0  0  0  0
 20 21  2  0  0  0  0
 21 16  1  0  0  0  0
M  END
> <Value>
3.5383514319365448

> <Relation>
=

> <SourceURI>
mol:CHEMBL459540

$$$$

Generated by Molecular Materials Informatics

 20 21  0  0  0  0  0  0  0  0999 V2000
   10.2759  -23.9203    0.0000 C   0  0  0  0  0  0  0  0  0  0  0  0
   11.5728  -24.6651    0.0000 N   0  0  0  0  0  0  0  0  0  0  0  0
   12.8700  -23.9120    0.0000 C   0  0  0  0  0  0  0  0  0  0  0  0
   14.1668  -24.6569    0.0000 C   0  0  0  0  0  0  0  0  0  0  0  0
   15.4637  -23.9038    0.0000 C   0  0  0  0  0  0  0  0  0  0  0  0
   16.7609  -24.6484    0.0000 C   0  0  0  0  0  0  0  0  0  0  0  0
   10.2723  -22.4143    0.0000 O   0  0  0  0  0  0  0  0  0  0  0  0
   14.1705  -26.1630    0.0000 N   0  0  0  0  0  0  0  0  0  0  0  0
   16.7593  -26.1459    0.0000 C   0  0  0  0  0  0  0  0  0  0  0  0
   18.0549  -26.8907    0.0000 C   0  0  0  0  0  0  0  0  0  0  0  0
   19.3501  -26.1396    0.0000 C   0  0  0  0  0  0  0  0  0  0  0  0
   19.3417  -24.6364    0.0000 C   0  0  0  0  0  0  0  0  0  0  0  0
   18.0452  -23.8985    0.0000 C   0  0  0  0  0  0  0  0  0  0  0  0
    8.9732  -24.6768    0.0000 C   0  0  0  0  0  0  0  0  0  0  0  0
    7.6671  -23.9267    0.0000 C   0  0  0  0  0  0  0  0  0  0  0  0
    7.6704  -22.4242    0.0000 C   0  0  0  0  0  0  0  0  0  0  0  0
    6.3655  -21.6744    0.0000 C   0  0  0  0  0  0  0  0  0  0  0  0
    5.0612  -22.4308    0.0000 C   0  0  0  0  0  0  0  0  0  0  0  0
    5.0696  -23.9447    0.0000 C   0  0  0  0  0  0  0  0  0  0  0  0
    6.3753  -24.6877    0.0000 C   0  0  0  0  0  0  0  0  0  0  0  0
  2  3  1  0  0  0  0
 10 11  2  0  0  0  0
  5  6  1  0  0  0  0
 11 12  1  0  0  0  0
  1  2  1  0  0  0  0
 12 13  2  0  0  0  0
 13  6  1  0  0  0  0
  1  7  2  0  0  0  0
  1 14  1  0  0  0  0
  3  4  1  0  0  0  0
 14 15  1  0  0  0  0
  4  8  1  1  0  0  0
 15 16  2  0  0  0  0
 16 17  1  0  0  0  0
  6  9  2  0  0  0  0
 17 18  2  0  0  0  0
  4  5  1  0  0  0  0
 18 19  1  0  0  0  0
  9 10  1  0  0  0  0
 19 20  2  0  0  0  0
 20 15  1  0  0  0  0
M  END
> <Value>
3.0

> <Relation>
<

> <SourceURI>
mol:CHEMBL511865

$$$$

Generated by Molecular Materials Informatics

 19 19  0  0  0  0  0  0  0  0999 V2000
   -1.0689    0.2264    0.0000 C   0  0  0  0  0  0  0  0  0  0  0  0
    0.4091    0.4125    0.0000 C   0  0  0  0  0  0  0  0  0  0  0  0
   -1.9991    1.4152    0.0000 C   0  0  0  0  0  0  0  0  0  0  0  0
    0.9777    1.8079    0.0000 N   0  0  0  0  0  0  0  0  0  0  0  0
   -1.6580   -1.1586    0.0000 C   0  0  0  0  0  0  0  0  0  0  0  0
    3.3860    0.7950    0.0000 C   0  0  0  0  0  0  0  0  0  0  0  0
    1.3188   -0.7659    0.0000 O   0  0  0  0  0  0  0  0  0  0  0  0
   -1.4100    2.8001    0.0000 O   0  0  0  0  0  0  0  0  0  0  0  0
    2.7968   -0.5798    0.0000 O   0  0  0  0  0  0  0  0  0  0  0  0
   -3.4670    1.2187    0.0000 N   0  0  0  0  0  0  0  0  0  0  0  0
    2.4661    1.9939    0.0000 C   0  0  0  0  0  0  0  0  0  0  0  0
    4.8744    0.9810    0.0000 O   0  0  0  0  0  0  0  0  0  0  0  0
   -0.7588   -2.3473    0.0000 C   0  0  0  0  0  0  0  0  0  0  0  0
   -4.9244    2.5831    0.0000 O   0  0  0  0  0  0  0  0  0  0  0  0
   -1.3274   -3.7117    0.0000 C   0  0  0  0  0  0  0  0  0  0  0  0
    0.7296   -2.1508    0.0000 C   0  0  0  0  0  0  0  0  0  0  0  0
    1.6289   -3.3396    0.0000 C   0  0  0  0  0  0  0  0  0  0  0  0
   -0.4281   -4.9210    0.0000 C   0  0  0  0  0  0  0  0  0  0  0  0
    1.0603   -4.7350    0.0000 C   0  0  0  0  0  0  0  0  0  0  0  0
  2  1  1  0  0  0  0
  3  1  1  0  0  0  0
  4  2  1  0  0  0  0
  5  1  1  0  0  0  0
  6 11  1  0  0  0  0
  7  2  2  0  0  0  0
  8  3  2  0  0  0  0
  9  6  2  0  0  0  0
 10  3  1  0  0  0  0
 11  4  1  0  0  0  0
 12  6  1  0  0  0  0
 13  5  1  0  0  0  0
 14 10  1  0  0  0  0
 15 13  2  0  0  0  0
 16 13  1  0  0  0  0
 17 16  2  0  0  0  0
 18 15  1  0  0  0  0
 19 17  1  0  0  0  0
 19 18  2  0  0  0  0
M  END
> <Value>
9.0

> <Relation>
=

> <SourceURI>
mol:CHEMBL17107

$$$$

Generated by Molecular Materials Informatics

 19 19  0  0  0  0  0  0  0  0999 V2000
   -1.2761    0.3212    0.0000 C   0  0  0  0  0  0  0  0  0  0  0  0
    0.2124    0.5073    0.0000 C   0  0  0  0  0  0  0  0  0  0  0  0
   -2.1857    1.5201    0.0000 N   0  0  0  0  0  0  0  0  0  0  0  0
    0.7911    1.8922    0.0000 N   0  0  0  0  0  0  0  0  0  0  0  0
   -1.8652   -1.0536    0.0000 C   0  0  0  0  0  0  0  0  0  0  0  0
    3.1892    0.9000    0.0000 C   0  0  0  0  0  0  0  0  0  0  0  0
   -3.6637    1.3135    0.0000 C   0  0  0  0  0  0  0  0  0  0  0  0
    1.1116   -0.6815    0.0000 O   0  0  0  0  0  0  0  0  0  0  0  0
    2.6000   -0.4954    0.0000 O   0  0  0  0  0  0  0  0  0  0  0  0
   -4.5734    2.5124    0.0000 O   0  0  0  0  0  0  0  0  0  0  0  0
    2.2795    2.0783    0.0000 C   0  0  0  0  0  0  0  0  0  0  0  0
   -1.6172    2.8845    0.0000 O   0  0  0  0  0  0  0  0  0  0  0  0
    4.6776    1.0860    0.0000 O   0  0  0  0  0  0  0  0  0  0  0  0
   -0.9454   -2.2525    0.0000 C   0  0  0  0  0  0  0  0  0  0  0  0
   -1.5241   -3.6273    0.0000 C   0  0  0  0  0  0  0  0  0  0  0  0
    0.5224   -2.0459    0.0000 C   0  0  0  0  0  0  0  0  0  0  0  0
    1.4423   -3.2448    0.0000 C   0  0  0  0  0  0  0  0  0  0  0  0
   -0.6249   -4.8262    0.0000 C   0  0  0  0  0  0  0  0  0  0  0  0
    0.8635   -4.6402    0.0000 C   0  0  0  0  0  0  0  0  0  0  0  0
  2  1  1  0  0  0  0
  3  1  1  0  0  0  0
  4  2  1  0  0  0  0
  5  1  1  0  0  0  0
  6 11  1  0  0  0  0
  7  3  1  0  0  0  0
  8  2  2  0  0  0  0
  9  6  2  0  0  0  0
 10  7  2  0  0  0  0
 11  4  1  0  0  0  0
 12  3  1  0  0  0  0
 13  6  1  0  0  0  0
 14  5  1  0  0  0  0
 15 14  2  0  0  0  0
 16 14  1  0  0  0  0
 17 16  2  0  0  0  0
 18 15  1  0  0  0  0
 19 17  1  0  0  0  0
 19 18  2  0  0  0  0
M  END
> <Value>
8.602059991327963

> <Relation>
=

> <SourceURI>
mol:CHEMBL16457

$$$$

Generated by Molecular Materials Informatics

 21 21  0  0  0  0  0  0  0  0999 V2000
    2.6427    0.5261    0.0000 C   0  0  0  0  0  0  0  0  0  0  0  0
    3.2220    1.9123    0.0000 N   0  0  0  0  0  0  0  0  0  0  0  0
    1.1530    0.3399    0.0000 C   0  0  0  0  0  0  0  0  0  0  0  0
    5.6222    0.9192    0.0000 C   0  0  0  0  0  0  0  0  0  0  0  0
   -1.2162    1.3537    0.0000 C   0  0  0  0  0  0  0  0  0  0  0  0
    4.7117    2.0985    0.0000 C   0  0  0  0  0  0  0  0  0  0  0  0
    0.2530    1.5399    0.0000 C   0  0  0  0  0  0  0  0  0  0  0  0
    3.5428   -0.6637    0.0000 O   0  0  0  0  0  0  0  0  0  0  0  0
    0.5633   -1.0361    0.0000 C   0  0  0  0  0  0  0  0  0  0  0  0
    5.0325   -0.4774    0.0000 O   0  0  0  0  0  0  0  0  0  0  0  0
   -1.6713    2.7813    0.0000 O   0  0  0  0  0  0  0  0  0  0  0  0
   -2.2403    0.2468    0.0000 N   0  0  0  0  0  0  0  0  0  0  0  0
    7.1014    1.0848    0.0000 O   0  0  0  0  0  0  0  0  0  0  0  0
    1.4840   -2.2361    0.0000 C   0  0  0  0  0  0  0  0  0  0  0  0
   -4.2472    0.3605    0.0000 O   0  0  0  0  0  0  0  0  0  0  0  0
    5.2808    3.4745    0.0000 C   0  0  0  0  0  0  0  0  0  0  0  0
    0.9047   -3.6121    0.0000 C   0  0  0  0  0  0  0  0  0  0  0  0
    2.9531   -2.0292    0.0000 C   0  0  0  0  0  0  0  0  0  0  0  0
    3.8737   -3.2292    0.0000 C   0  0  0  0  0  0  0  0  0  0  0  0
    1.8047   -4.8120    0.0000 C   0  0  0  0  0  0  0  0  0  0  0  0
    3.2945   -4.6258    0.0000 C   0  0  0  0  0  0  0  0  0  0  0  0
  2  1  1  0  0  0  0
  3  1  1  0  0  0  0
  4  6  1  0  0  0  0
  5  7  1  0  0  0  0
  6  2  1  0  0  0  0
  7  3  1  0  0  0  0
  8  1  2  0  0  0  0
  9  3  1  0  0  0  0
 10  4  2  0  0  0  0
 11  5  2  0  0  0  0
 12  5  1  0  0  0  0
 13  4  1  0  0  0  0
 14  9  1  0  0  0  0
 15 12  1  0  0  0  0
 16  6  1  0  0  0  0
 17 14  2  0  0  0  0
 18 14  1  0  0  0  0
 19 18  2  0  0  0  0
 20 17  1  0  0  0  0
 21 19  1  0  0  0  0
 21 20  2  0  0  0  0
M  END
> <Value>
8.148741651280925

> <Relation>
=

> <SourceURI>
mol:CHEMBL16046

$$$$

Generated by Molecular Materials Informatics

 20 20  0  0  0  0  0  0  0  0999 V2000
    2.8266    0.5813    0.0000 C   0  0  0  0  0  0  0  0  0  0  0  0
    1.3375    0.3952    0.0000 C   0  0  0  0  0  0  0  0  0  0  0  0
    3.4056    1.9567    0.0000 N   0  0  0  0  0  0  0  0  0  0  0  0
   -1.0306    1.3879    0.0000 C   0  0  0  0  0  0  0  0  0  0  0  0
    5.8047    0.9536    0.0000 C   0  0  0  0  0  0  0  0  0  0  0  0
    0.4379    1.5740    0.0000 C   0  0  0  0  0  0  0  0  0  0  0  0
    0.7481   -1.0008    0.0000 C   0  0  0  0  0  0  0  0  0  0  0  0
    3.7262   -0.6181    0.0000 O   0  0  0  0  0  0  0  0  0  0  0  0
   -1.4855    2.8253    0.0000 O   0  0  0  0  0  0  0  0  0  0  0  0
    5.2153   -0.4320    0.0000 O   0  0  0  0  0  0  0  0  0  0  0  0
    4.8946    2.1428    0.0000 C   0  0  0  0  0  0  0  0  0  0  0  0
   -2.0543    0.3021    0.0000 N   0  0  0  0  0  0  0  0  0  0  0  0
    7.2938    1.1397    0.0000 O   0  0  0  0  0  0  0  0  0  0  0  0
    1.6683   -2.1797    0.0000 C   0  0  0  0  0  0  0  0  0  0  0  0
   -4.0604    0.3952    0.0000 O   0  0  0  0  0  0  0  0  0  0  0  0
    3.1368   -1.9935    0.0000 C   0  0  0  0  0  0  0  0  0  0  0  0
    1.0893   -3.5653    0.0000 C   0  0  0  0  0  0  0  0  0  0  0  0
    1.9890   -4.7545    0.0000 C   0  0  0  0  0  0  0  0  0  0  0  0
    4.0570   -3.1724    0.0000 C   0  0  0  0  0  0  0  0  0  0  0  0
    3.4780   -4.5684    0.0000 C   0  0  0  0  0  0  0  0  0  0  0  0
  2  1  1  0  0  0  0
  3  1  1  0  0  0  0
  4  6  1  0  0  0  0
  5 11  1  0  0  0  0
  6  2  1  0  0  0  0
  7  2  1  0  0  0  0
  8  1  2  0  0  0  0
  9  4  2  0  0  0  0
 10  5  2  0  0  0  0
 11  3  1  0  0  0  0
 12  4  1  0  0  0  0
 13  5  1  0  0  0  0
 14  7  1  0  0  0  0
 15 12  1  0  0  0  0
 16 14  1  0  0  0  0
 17 14  2  0  0  0  0
 18 17  1  0  0  0  0
 19 16  2  0  0  0  0
 20 18  2  0  0  0  0
 19 20  1  0  0  0  0
M  END
> <Value>
7.198970004336019

> <Error>
3.0

> <Relation>
=

> <SourceURI>
mol:CHEMBL16779

$$$$

Generated by Molecular Materials Informatics

 20 20  0  0  0  0  0  0  0  0999 V2000
   -0.8352    0.3774    0.0000 C   0  0  0  0  0  0  0  0  0  0  0  0
    0.6538    0.5635    0.0000 C   0  0  0  0  0  0  0  0  0  0  0  0
    1.2328    1.9491    0.0000 N   0  0  0  0  0  0  0  0  0  0  0  0
   -1.7349    1.5768    0.0000 C   0  0  0  0  0  0  0  0  0  0  0  0
    3.6320    0.9564    0.0000 C   0  0  0  0  0  0  0  0  0  0  0  0
   -1.4246   -0.9981    0.0000 C   0  0  0  0  0  0  0  0  0  0  0  0
   -4.1340    0.2118    0.0000 C   0  0  0  0  0  0  0  0  0  0  0  0
   -3.2239    1.3907    0.0000 N   0  0  0  0  0  0  0  0  0  0  0  0
    1.5535   -0.6258    0.0000 O   0  0  0  0  0  0  0  0  0  0  0  0
    3.0426   -0.4396    0.0000 O   0  0  0  0  0  0  0  0  0  0  0  0
   -5.6127    0.4084    0.0000 O   0  0  0  0  0  0  0  0  0  0  0  0
    2.7219    2.1352    0.0000 C   0  0  0  0  0  0  0  0  0  0  0  0
    5.1211    1.1425    0.0000 O   0  0  0  0  0  0  0  0  0  0  0  0
   -0.5044   -2.1975    0.0000 C   0  0  0  0  0  0  0  0  0  0  0  0
   -3.7823    2.7556    0.0000 O   0  0  0  0  0  0  0  0  0  0  0  0
    0.9641   -1.9908    0.0000 C   0  0  0  0  0  0  0  0  0  0  0  0
   -1.0834   -3.5729    0.0000 C   0  0  0  0  0  0  0  0  0  0  0  0
   -0.1838   -4.7723    0.0000 C   0  0  0  0  0  0  0  0  0  0  0  0
    1.8843   -3.1902    0.0000 C   0  0  0  0  0  0  0  0  0  0  0  0
    1.3053   -4.5862    0.0000 C   0  0  0  0  0  0  0  0  0  0  0  0
  2  1  1  0  0  0  0
  3  2  1  0  0  0  0
  4  1  1  0  0  0  0
  5 12  1  0  0  0  0
  6  1  1  0  0  0  0
  7  8  1  0  0  0  0
  8  4  1  0  0  0  0
  9  2  2  0  0  0  0
 10  5  2  0  0  0  0
 11  7  2  0  0  0  0
 12  3  1  0  0  0  0
 13  5  1  0  0  0  0
 14  6  1  0  0  0  0
 15  8  1  0  0  0  0
 16 14  1  0  0  0  0
 17 14  2  0  0  0  0
 18 17  1  0  0  0  0
 19 16  2  0  0  0  0
 20 18  2  0  0  0  0
 19 20  1  0  0  0  0
M  END
> <Value>
8.070581074285707

> <Relation>
=

> <SourceURI>
mol:CHEMBL16622

$$$$

Generated by Molecular Materials Informatics

 37 39  0  0  0  0  0  0  0  0999 V2000
    4.0000   -5.0710    0.0000 C   0  0  0  0  0  0  0  0  0  0  0  0
    4.6149   -3.7197    0.0000 C   0  0  0  0  0  0  0  0  0  0  0  0
   -0.5093   -5.0255    0.0000 N   0  3  0  0  0  0  0  0  0  0  0  0
    5.1159   -6.0731    0.0000 N   0  0  0  0  0  0  0  0  0  0  0  0
    1.2671   -0.9261    0.0000 C   0  0  0  0  0  0  0  0  0  0  0  0
    0.2422   -6.3464    0.0000 C   0  0  0  0  0  0  0  0  0  0  0  0
    2.4969   -5.0710    0.0000 S   0  0  0  0  0  0  0  0  0  0  0  0
    6.0952   -3.8791    0.0000 C   0  0  0  0  0  0  0  0  0  0  0  0
    3.8633   -2.4292    0.0000 C   0  0  0  0  0  0  0  0  0  0  0  0
    2.5652   -0.1745    0.0000 N   0  0  0  0  0  0  0  0  0  0  0  0
    6.4141   -5.3215    0.0000 C   0  0  0  0  0  0  0  0  0  0  0  0
   -0.0311   -0.1896    0.0000 C   0  0  0  0  0  0  0  0  0  0  0  0
    1.7377   -6.3615    0.0000 C   0  0  0  0  0  0  0  0  0  0  0  0
    3.8633   -0.9261    0.0000 C   0  0  0  0  0  0  0  0  0  0  0  0
    5.1615   -0.1745    0.0000 C   0  0  0  0  0  0  0  0  0  0  0  0
    0.7888   -4.3195    0.0000 O   0  5  0  0  0  0  0  0  0  0  0  0
   -2.0124   -5.0255    0.0000 O   0  0  0  0  0  0  0  0  0  0  0  0
    1.2671   -2.4292    0.0000 O   0  0  0  0  0  0  0  0  0  0  0  0
    5.1615    1.3286    0.0000 O   0  0  0  0  0  0  0  0  0  0  0  0
   -1.3292   -0.9412    0.0000 C   0  0  0  0  0  0  0  0  0  0  0  0
   -0.0311    1.3135    0.0000 O   0  0  0  0  0  0  0  0  0  0  0  0
    6.4596   -0.9184    0.0000 O   0  0  0  0  0  0  0  0  0  0  0  0
   -1.3141   -2.4443    0.0000 N   0  0  0  0  0  0  0  0  0  0  0  0
   -0.5170   -7.6445    0.0000 C   0  0  0  0  0  0  0  0  0  0  0  0
   -7.8199   -0.2124    0.0000 N   0  0  0  0  0  0  0  0  0  0  0  0
    7.1884   -2.8847    0.0000 C   0  0  0  0  0  0  0  0  0  0  0  0
    7.8033   -5.7921    0.0000 C   0  0  0  0  0  0  0  0  0  0  0  0
    2.4892   -7.6596    0.0000 C   0  0  0  0  0  0  0  0  0  0  0  0
   -2.6273   -0.1973    0.0000 C   0  0  0  0  0  0  0  0  0  0  0  0
   -6.5218   -0.9489    0.0000 C   0  0  0  0  0  0  0  0  0  0  0  0
    7.7578   -0.1669    0.0000 C   0  0  0  0  0  0  0  0  0  0  0  0
   -5.2236   -0.1973    0.0000 C   0  0  0  0  0  0  0  0  0  0  0  0
   -3.9255   -0.9489    0.0000 C   0  0  0  0  0  0  0  0  0  0  0  0
    0.2194   -8.9427    0.0000 C   0  0  0  0  0  0  0  0  0  0  0  0
    8.6004   -3.3553    0.0000 C   0  0  0  0  0  0  0  0  0  0  0  0
    8.9116   -4.8128    0.0000 C   0  0  0  0  0  0  0  0  0  0  0  0
    1.7377   -8.9578    0.0000 C   0  0  0  0  0  0  0  0  0  0  0  0
  2  1  2  0  0  0  0
  3  6  1  0  0  0  0
  4  1  1  0  0  0  0
  5 10  1  0  0  0  0
  6 13  2  0  0  0  0
  7  1  1  0  0  0  0
  8  2  1  0  0  0  0
  9  2  1  0  0  0  0
 10 14  1  0  0  0  0
 11  4  1  0  0  0  0
 12  5  1  0  0  0  0
 13  7  1  0  0  0  0
 14  9  1  6  0  0  0
 15 14  1  0  0  0  0
 16  3  1  0  0  0  0
 17  3  2  0  0  0  0
 18  5  2  0  0  0  0
 19 15  2  0  0  0  0
 20 12  1  0  0  0  0
 12 21  1  6  0  0  0
 22 15  1  0  0  0  0
 20 23  1  6  0  0  0
 24  6  1  0  0  0  0
 25 30  1  0  0  0  0
 26  8  1  0  0  0  0
 27 11  1  0  0  0  0
 28 13  1  0  0  0  0
 29 20  1  0  0  0  0
 30 32  1  0  0  0  0
 31 22  1  0  0  0  0
 32 33  1  0  0  0  0
 33 29  1  0  0  0  0
 34 37  1  0  0  0  0
 35 26  2  0  0  0  0
 36 27  2  0  0  0  0
 37 28  2  0  0  0  0
 11  8  2  0  0  0  0
 35 36  1  0  0  0  0
 34 24  2  0  0  0  0
M  CHG  2   3   1  16  -1
M  END
> <Value>
7.619788758288394

> <Relation>
=

> <SourceURI>
mol:CHEMBL354438

$$$$

Generated by Molecular Materials Informatics

 37 39  0  0  0  0  0  0  0  0999 V2000
    9.4834   -5.0081    0.0000 C   0  0  0  0  0  0  0  0  0  0  0  0
   10.0827   -3.6594    0.0000 C   0  0  0  0  0  0  0  0  0  0  0  0
    4.9435   -4.9641    0.0000 N   0  3  0  0  0  0  0  0  0  0  0  0
   10.5852   -6.0131    0.0000 N   0  0  0  0  0  0  0  0  0  0  0  0
    6.7417   -0.8562    0.0000 C   0  0  0  0  0  0  0  0  0  0  0  0
    5.7017   -6.2864    0.0000 C   0  0  0  0  0  0  0  0  0  0  0  0
    7.9760   -5.0081    0.0000 S   0  0  0  0  0  0  0  0  0  0  0  0
   11.5637   -3.8181    0.0000 C   0  0  0  0  0  0  0  0  0  0  0  0
    9.3423   -2.3636    0.0000 C   0  0  0  0  0  0  0  0  0  0  0  0
    8.0464   -0.1071    0.0000 N   0  0  0  0  0  0  0  0  0  0  0  0
   11.8810   -5.2639    0.0000 C   0  0  0  0  0  0  0  0  0  0  0  0
    5.4372   -0.1158    0.0000 C   0  0  0  0  0  0  0  0  0  0  0  0
    7.2091   -6.3040    0.0000 C   0  0  0  0  0  0  0  0  0  0  0  0
    9.3423   -0.8562    0.0000 C   0  0  0  0  0  0  0  0  0  0  0  0
   10.6470   -0.1071    0.0000 C   0  0  0  0  0  0  0  0  0  0  0  0
    6.2657   -4.2590    0.0000 O   0  5  0  0  0  0  0  0  0  0  0  0
    3.4450   -4.9641    0.0000 O   0  0  0  0  0  0  0  0  0  0  0  0
    6.7417   -2.3636    0.0000 O   0  0  0  0  0  0  0  0  0  0  0  0
   10.6292    1.4003    0.0000 O   0  0  0  0  0  0  0  0  0  0  0  0
    4.1414   -0.8740    0.0000 C   0  0  0  0  0  0  0  0  0  0  0  0
    5.4372    1.3827    0.0000 O   0  0  0  0  0  0  0  0  0  0  0  0
   11.9428   -0.8476    0.0000 O   0  0  0  0  0  0  0  0  0  0  0  0
    4.1501   -2.3814    0.0000 N   0  0  0  0  0  0  0  0  0  0  0  0
    4.9435   -7.5911    0.0000 C   0  0  0  0  0  0  0  0  0  0  0  0
   -2.3641   -0.1422    0.0000 N   0  0  0  0  0  0  0  0  0  0  0  0
   12.6744   -2.8221    0.0000 C   0  0  0  0  0  0  0  0  0  0  0  0
   13.2737   -5.7311    0.0000 C   0  0  0  0  0  0  0  0  0  0  0  0
    7.9582   -7.6087    0.0000 C   0  0  0  0  0  0  0  0  0  0  0  0
    2.8367   -0.1246    0.0000 C   0  0  0  0  0  0  0  0  0  0  0  0
   -1.0596   -0.8827    0.0000 C   0  0  0  0  0  0  0  0  0  0  0  0
   13.2473   -0.0982    0.0000 C   0  0  0  0  0  0  0  0  0  0  0  0
    0.2362   -0.1246    0.0000 C   0  0  0  0  0  0  0  0  0  0  0  0
    1.5409   -0.8827    0.0000 C   0  0  0  0  0  0  0  0  0  0  0  0
    5.6928   -8.8869    0.0000 C   0  0  0  0  0  0  0  0  0  0  0  0
   14.0760   -3.2892    0.0000 C   0  0  0  0  0  0  0  0  0  0  0  0
   14.3933   -4.7526    0.0000 C   0  0  0  0  0  0  0  0  0  0  0  0
    7.2091   -8.9045    0.0000 C   0  0  0  0  0  0  0  0  0  0  0  0
  2  1  2  0  0  0  0
  3  6  1  0  0  0  0
  4  1  1  0  0  0  0
  5 10  1  0  0  0  0
  6 13  2  0  0  0  0
  7  1  1  0  0  0  0
  8  2  1  0  0  0  0
  9  2  1  0  0  0  0
 10 14  1  0  0  0  0
 11  4  1  0  0  0  0
 12  5  1  0  0  0  0
 13  7  1  0  0  0  0
 14  9  1  1  0  0  0
 15 14  1  0  0  0  0
 16  3  1  0  0  0  0
 17  3  2  0  0  0  0
 18  5  2  0  0  0  0
 19 15  2  0  0  0  0
 20 12  1  0  0  0  0
 12 21  1  0  0  0  0
 22 15  1  0  0  0  0
 20 23  1  6  0  0  0
 24  6  1  0  0  0  0
 25 30  1  0  0  0  0
 26  8  1  0  0  0  0
 27 11  1  0  0  0  0
 28 13  1  0  0  0  0
 29 20  1  0  0  0  0
 30 32  1  0  0  0  0
 31 22  1  0  0  0  0
 32 33  1  0  0  0  0
 33 29  1  0  0  0  0
 34 37  1  0  0  0  0
 35 26  2  0  0  0  0
 36 27  2  0  0  0  0
 37 28  2  0  0  0  0
  8 11  2  0  0  0  0
 36 35  1  0  0  0  0
 24 34  2  0  0  0  0
M  CHG  2   3   1  16  -1
M  END
> <Value>
6.481486060122113

> <Relation>
=

> <SourceURI>
mol:CHEMBL171497

$$$$

Generated by Molecular Materials Informatics

 37 39  0  0  0  0  0  0  0  0999 V2000
    9.9375   -7.9469    0.0000 C   0  0  0  0  0  0  0  0  0  0  0  0
   10.5524   -6.5881    0.0000 C   0  0  0  0  0  0  0  0  0  0  0  0
    5.4282   -7.9014    0.0000 N   0  3  0  0  0  0  0  0  0  0  0  0
   11.0534   -8.9339    0.0000 N   0  0  0  0  0  0  0  0  0  0  0  0
    7.2046   -3.8020    0.0000 C   0  0  0  0  0  0  0  0  0  0  0  0
    6.1797   -9.2223    0.0000 C   0  0  0  0  0  0  0  0  0  0  0  0
    8.4344   -7.9318    0.0000 S   0  0  0  0  0  0  0  0  0  0  0  0
   12.0327   -6.7475    0.0000 C   0  0  0  0  0  0  0  0  0  0  0  0
    9.8008   -5.2900    0.0000 C   0  0  0  0  0  0  0  0  0  0  0  0
    8.5027   -3.0504    0.0000 N   0  0  0  0  0  0  0  0  0  0  0  0
   12.3516   -8.1823    0.0000 C   0  0  0  0  0  0  0  0  0  0  0  0
    5.9064   -3.0581    0.0000 C   0  0  0  0  0  0  0  0  0  0  0  0
    7.6752   -9.2299    0.0000 C   0  0  0  0  0  0  0  0  0  0  0  0
    9.8008   -3.7869    0.0000 C   0  0  0  0  0  0  0  0  0  0  0  0
   11.0990   -3.0353    0.0000 C   0  0  0  0  0  0  0  0  0  0  0  0
    6.7263   -7.1802    0.0000 O   0  5  0  0  0  0  0  0  0  0  0  0
    3.9251   -7.8862    0.0000 O   0  0  0  0  0  0  0  0  0  0  0  0
    7.2046   -5.3051    0.0000 O   0  0  0  0  0  0  0  0  0  0  0  0
   11.0990   -1.5322    0.0000 O   0  0  0  0  0  0  0  0  0  0  0  0
    4.6083   -3.8096    0.0000 C   0  0  0  0  0  0  0  0  0  0  0  0
    5.9064   -1.5550    0.0000 O   0  0  0  0  0  0  0  0  0  0  0  0
   12.3971   -3.7869    0.0000 O   0  0  0  0  0  0  0  0  0  0  0  0
    4.6234   -5.3127    0.0000 N   0  0  0  0  0  0  0  0  0  0  0  0
    5.4205  -10.5053    0.0000 C   0  0  0  0  0  0  0  0  0  0  0  0
   -1.8824   -3.0808    0.0000 N   0  0  0  0  0  0  0  0  0  0  0  0
   13.1259   -5.7606    0.0000 C   0  0  0  0  0  0  0  0  0  0  0  0
   13.7408   -8.6606    0.0000 C   0  0  0  0  0  0  0  0  0  0  0  0
    8.4267  -10.5281    0.0000 C   0  0  0  0  0  0  0  0  0  0  0  0
    3.3101   -3.0581    0.0000 C   0  0  0  0  0  0  0  0  0  0  0  0
   -0.5843   -3.8247    0.0000 C   0  0  0  0  0  0  0  0  0  0  0  0
   13.6953   -3.0353    0.0000 C   0  0  0  0  0  0  0  0  0  0  0  0
    0.7139   -3.0732    0.0000 C   0  0  0  0  0  0  0  0  0  0  0  0
    2.0120   -3.8096    0.0000 C   0  0  0  0  0  0  0  0  0  0  0  0
    6.1569  -11.8186    0.0000 C   0  0  0  0  0  0  0  0  0  0  0  0
   14.5379   -6.2237    0.0000 C   0  0  0  0  0  0  0  0  0  0  0  0
   14.8491   -7.6813    0.0000 C   0  0  0  0  0  0  0  0  0  0  0  0
    7.6752  -11.8262    0.0000 C   0  0  0  0  0  0  0  0  0  0  0  0
  2  1  2  0  0  0  0
  3  6  1  0  0  0  0
  4  1  1  0  0  0  0
  5 10  1  0  0  0  0
  6 13  2  0  0  0  0
  7  1  1  0  0  0  0
  8  2  1  0  0  0  0
  9  2  1  0  0  0  0
 10 14  1  0  0  0  0
 11  4  1  0  0  0  0
 12  5  1  0  0  0  0
 13  7  1  0  0  0  0
 14  9  1  1  0  0  0
 15 14  1  0  0  0  0
 16  3  1  0  0  0  0
 17  3  2  0  0  0  0
 18  5  2  0  0  0  0
 19 15  2  0  0  0  0
 20 12  1  0  0  0  0
 12 21  1  1  0  0  0
 22 15  1  0  0  0  0
 20 23  1  1  0  0  0
 24  6  1  0  0  0  0
 25 30  1  0  0  0  0
 26  8  1  0  0  0  0
 27 11  1  0  0  0  0
 28 13  1  0  0  0  0
 29 20  1  0  0  0  0
 30 32  1  0  0  0  0
 31 22  1  0  0  0  0
 32 33  1  0  0  0  0
 33 29  1  0  0  0  0
 34 37  1  0  0  0  0
 35 26  2  0  0  0  0
 36 27  2  0  0  0  0
 37 28  2  0  0  0  0
 11  8  2  0  0  0  0
 35 36  1  0  0  0  0
 34 24  2  0  0  0  0
M  CHG  2   3   1  16  -1
M  END
> <Value>
4.962573502059376

> <Relation>
=

> <SourceURI>
mol:CHEMBL170314

$$$$

Generated by Molecular Materials Informatics

 21 20  0  0  0  0  0  0  0  0999 V2000
    1.5273   -1.8919    0.0000 C   0  0  0  0  0  0  0  0  0  0  0  0
    2.8255   -1.1403    0.0000 N   0  0  0  0  0  0  0  0  0  0  0  0
    0.2292   -1.1554    0.0000 C   0  0  0  0  0  0  0  0  0  0  0  0
    4.1236   -1.8919    0.0000 C   0  0  0  0  0  0  0  0  0  0  0  0
    5.4218   -1.1403    0.0000 C   0  0  0  0  0  0  0  0  0  0  0  0
    1.5273   -3.3950    0.0000 O   0  0  0  0  0  0  0  0  0  0  0  0
    5.4218    0.3628    0.0000 O   0  0  0  0  0  0  0  0  0  0  0  0
    4.1236   -3.3950    0.0000 C   0  0  0  0  0  0  0  0  0  0  0  0
   -1.0689   -1.9070    0.0000 C   0  0  0  0  0  0  0  0  0  0  0  0
    0.2292    0.3477    0.0000 O   0  0  0  0  0  0  0  0  0  0  0  0
    6.7199   -1.8842    0.0000 O   0  0  0  0  0  0  0  0  0  0  0  0
   -1.0538   -3.4101    0.0000 N   0  0  0  0  0  0  0  0  0  0  0  0
   -7.5596   -1.1782    0.0000 N   0  0  0  0  0  0  0  0  0  0  0  0
    5.4369   -4.1389    0.0000 C   0  0  0  0  0  0  0  0  0  0  0  0
   -2.3671   -1.1631    0.0000 C   0  0  0  0  0  0  0  0  0  0  0  0
   -6.2615   -1.9146    0.0000 C   0  0  0  0  0  0  0  0  0  0  0  0
    8.0180   -1.1327    0.0000 C   0  0  0  0  0  0  0  0  0  0  0  0
   -4.9634   -1.1631    0.0000 C   0  0  0  0  0  0  0  0  0  0  0  0
   -3.6652   -1.9146    0.0000 C   0  0  0  0  0  0  0  0  0  0  0  0
    5.4369   -5.6420    0.0000 C   0  0  0  0  0  0  0  0  0  0  0  0
    6.7350   -3.3873    0.0000 C   0  0  0  0  0  0  0  0  0  0  0  0
  2  1  1  0  0  0  0
  3  1  1  0  0  0  0
  4  2  1  0  0  0  0
  5  4  1  0  0  0  0
  6  1  2  0  0  0  0
  7  5  2  0  0  0  0
  4  8  1  6  0  0  0
  9  3  1  0  0  0  0
  3 10  1  6  0  0  0
 11  5  1  0  0  0  0
  9 12  1  6  0  0  0
 13 16  1  0  0  0  0
 14  8  1  0  0  0  0
 15  9  1  0  0  0  0
 16 18  1  0  0  0  0
 17 11  1  0  0  0  0
 18 19  1  0  0  0  0
 19 15  1  0  0  0  0
 20 14  1  0  0  0  0
 21 14  1  0  0  0  0
M  END
> <Value>
5.696803942579511

> <Relation>
=

> <SourceURI>
mol:CHEMBL171555

$$$$

Generated by Molecular Materials Informatics

 37 39  0  0  0  0  0  0  0  0999 V2000
   15.4614   -2.2016    0.0000 C   0  0  0  0  0  0  0  0  0  0  0  0
   16.0781   -0.8454    0.0000 C   0  0  0  0  0  0  0  0  0  0  0  0
   10.9431   -2.1576    0.0000 N   0  3  0  0  0  0  0  0  0  0  0  0
   16.5801   -3.1882    0.0000 N   0  0  0  0  0  0  0  0  0  0  0  0
   12.7223    1.9468    0.0000 C   0  0  0  0  0  0  0  0  0  0  0  0
   11.7005   -3.4788    0.0000 C   0  0  0  0  0  0  0  0  0  0  0  0
   13.9553   -2.1841    0.0000 S   0  0  0  0  0  0  0  0  0  0  0  0
   17.5578   -1.0039    0.0000 C   0  0  0  0  0  0  0  0  0  0  0  0
   15.3205    0.4583    0.0000 C   0  0  0  0  0  0  0  0  0  0  0  0
   14.0257    2.6954    0.0000 N   0  0  0  0  0  0  0  0  0  0  0  0
   17.8748   -2.4394    0.0000 C   0  0  0  0  0  0  0  0  0  0  0  0
   11.4187    2.6954    0.0000 C   0  0  0  0  0  0  0  0  0  0  0  0
   13.1979   -3.4877    0.0000 C   0  0  0  0  0  0  0  0  0  0  0  0
   15.3205    1.9644    0.0000 C   0  0  0  0  0  0  0  0  0  0  0  0
   16.6241    2.7131    0.0000 C   0  0  0  0  0  0  0  0  0  0  0  0
   12.2467   -1.4353    0.0000 O   0  5  0  0  0  0  0  0  0  0  0  0
    9.4369   -2.1401    0.0000 O   0  0  0  0  0  0  0  0  0  0  0  0
   12.7223    0.4407    0.0000 O   0  0  0  0  0  0  0  0  0  0  0  0
   16.6241    4.2192    0.0000 O   0  0  0  0  0  0  0  0  0  0  0  0
   10.1239    1.9380    0.0000 C   0  0  0  0  0  0  0  0  0  0  0  0
   11.4187    4.1928    0.0000 O   0  0  0  0  0  0  0  0  0  0  0  0
   17.9188    1.9644    0.0000 O   0  0  0  0  0  0  0  0  0  0  0  0
   10.1415    0.4318    0.0000 N   0  0  0  0  0  0  0  0  0  0  0  0
   10.9342   -4.7647    0.0000 C   0  0  0  0  0  0  0  0  0  0  0  0
    3.6238    2.6689    0.0000 N   0  0  0  0  0  0  0  0  0  0  0  0
   18.6498   -0.0174    0.0000 C   0  0  0  0  0  0  0  0  0  0  0  0
   19.2664   -2.9150    0.0000 C   0  0  0  0  0  0  0  0  0  0  0  0
   13.9464   -4.7911    0.0000 C   0  0  0  0  0  0  0  0  0  0  0  0
    8.8203    2.6954    0.0000 C   0  0  0  0  0  0  0  0  0  0  0  0
    4.9274    1.9204    0.0000 C   0  0  0  0  0  0  0  0  0  0  0  0
   19.2224    2.7131    0.0000 C   0  0  0  0  0  0  0  0  0  0  0  0
    6.2222    2.6778    0.0000 C   0  0  0  0  0  0  0  0  0  0  0  0
    7.5256    1.9380    0.0000 C   0  0  0  0  0  0  0  0  0  0  0  0
   11.6740   -6.0772    0.0000 C   0  0  0  0  0  0  0  0  0  0  0  0
   20.0680   -0.4754    0.0000 C   0  0  0  0  0  0  0  0  0  0  0  0
   20.3762   -1.9374    0.0000 C   0  0  0  0  0  0  0  0  0  0  0  0
   13.1979   -6.0858    0.0000 C   0  0  0  0  0  0  0  0  0  0  0  0
  2  1  2  0  0  0  0
  3  6  1  0  0  0  0
  4  1  1  0  0  0  0
  5 10  1  0  0  0  0
  6 13  2  0  0  0  0
  7  1  1  0  0  0  0
  8  2  1  0  0  0  0
  9  2  1  0  0  0  0
 10 14  1  0  0  0  0
 11  4  1  0  0  0  0
 12  5  1  0  0  0  0
 13  7  1  0  0  0  0
 14  9  1  6  0  0  0
 15 14  1  0  0  0  0
 16  3  1  0  0  0  0
 17  3  2  0  0  0  0
 18  5  2  0  0  0  0
 19 15  2  0  0  0  0
 20 12  1  0  0  0  0
 12 21  1  0  0  0  0
 22 15  1  0  0  0  0
 20 23  1  1  0  0  0
 24  6  1  0  0  0  0
 25 30  1  0  0  0  0
 26  8  1  0  0  0  0
 27 11  1  0  0  0  0
 28 13  1  0  0  0  0
 29 20  1  0  0  0  0
 30 32  1  0  0  0  0
 31 22  1  0  0  0  0
 32 33  1  0  0  0  0
 33 29  1  0  0  0  0
 34 37  1  0  0  0  0
 35 26  2  0  0  0  0
 36 27  2  0  0  0  0
 37 28  2  0  0  0  0
  8 11  2  0  0  0  0
 36 35  1  0  0  0  0
 24 34  2  0  0  0  0
M  CHG  2   3   1  16  -1
M  END
> <Value>
4.486116814388907

> <Relation>
=

> <SourceURI>
mol:CHEMBL355858

$$$$

Generated by Molecular Materials Informatics

 11 11  0  0  0  0  0  0  0  0999 V2000
   -5.9751   -0.8887    0.0000 N   0  0  0  0  0  0  0  0  0  0  0  0
   -4.4518    1.6915    0.0000 S   0  0  0  0  0  0  0  0  0  0  0  0
   -3.7367   -2.1944    0.0000 C   0  0  0  0  0  0  0  0  0  0  0  0
   -4.4622   -0.8887    0.0000 C   0  0  0  0  0  0  0  0  0  0  0  0
   -2.2239   -2.2151    0.0000 C   0  0  0  0  0  0  0  0  0  0  0  0
   -3.7057    0.3963    0.0000 C   0  0  0  0  0  0  0  0  0  0  0  0
   -1.4674   -0.9198    0.0000 C   0  0  0  0  0  0  0  0  0  0  0  0
   -1.4778   -3.5207    0.0000 C   0  0  0  0  0  0  0  0  0  0  0  0
    0.0249   -3.5207    0.0000 C   0  0  0  0  0  0  0  0  0  0  0  0
    0.0249   -0.9198    0.0000 C   0  0  0  0  0  0  0  0  0  0  0  0
    0.7710   -2.2255    0.0000 C   0  0  0  0  0  0  0  0  0  0  0  0
  2  6  1  0  0  0  0
  3  4  1  0  0  0  0
  4  1  1  0  0  0  0
  5  3  1  0  0  0  0
  6  4  1  0  0  0  0
  7  5  1  0  0  0  0
  8  5  1  0  0  0  0
  9  8  1  0  0  0  0
 10  7  1  0  0  0  0
 11  9  1  0  0  0  0
 11 10  1  0  0  0  0
M  END
> <Value>
7.346787486224656

> <Relation>
=

> <SourceURI>
mol:CHEMBL143493

$$$$

Generated by Molecular Materials Informatics

 13 13  0  0  0  0  0  0  0  0999 V2000
   -2.4602   -3.5844    0.0000 C   0  0  0  0  0  0  0  0  0  0  0  0
   -3.2044   -2.2820    0.0000 C   0  0  0  0  0  0  0  0  0  0  0  0
   -4.7134   -4.8763    0.0000 N   0  0  0  0  0  0  0  0  0  0  0  0
   -3.2250   -4.8867    0.0000 C   0  0  0  0  0  0  0  0  0  0  0  0
   -2.4497   -1.0002    0.0000 O   0  0  0  0  0  0  0  0  0  0  0  0
   -2.4808   -6.1891    0.0000 C   0  0  0  0  0  0  0  0  0  0  0  0
   -4.7134   -2.2820    0.0000 O   0  0  0  0  0  0  0  0  0  0  0  0
   -0.9923   -6.1891    0.0000 C   0  0  0  0  0  0  0  0  0  0  0  0
   -0.2275   -4.8867    0.0000 C   0  0  0  0  0  0  0  0  0  0  0  0
   -0.2481   -7.4915    0.0000 C   0  0  0  0  0  0  0  0  0  0  0  0
    1.2713   -4.9177    0.0000 C   0  0  0  0  0  0  0  0  0  0  0  0
    1.2609   -7.4915    0.0000 C   0  0  0  0  0  0  0  0  0  0  0  0
    2.0051   -6.2097    0.0000 C   0  0  0  0  0  0  0  0  0  0  0  0
  2  1  1  0  0  0  0
  3  4  1  0  0  0  0
  4  1  1  0  0  0  0
  5  2  2  0  0  0  0
  6  4  1  0  0  0  0
  7  2  1  0  0  0  0
  8  6  1  0  0  0  0
  9  8  1  0  0  0  0
 10  8  2  0  0  0  0
 11  9  2  0  0  0  0
 12 10  1  0  0  0  0
 13 12  2  0  0  0  0
 11 13  1  0  0  0  0
M  END
> <Value>
3.0969100130080562

> <Relation>
=

> <SourceURI>
mol:CHEMBL26901

$$$$

Generated by Molecular Materials Informatics

 10 10  0  0  0  0  0  0  0  0999 V2000
   -3.4089    1.2835    0.0000 N   0  0  0  0  0  0  0  0  0  0  0  0
   -2.1216    0.5466    0.0000 C   0  0  0  0  0  0  0  0  0  0  0  0
   -2.1216   -0.9482    0.0000 C   0  0  0  0  0  0  0  0  0  0  0  0
    0.4631    0.5673    0.0000 S   0  0  0  0  0  0  0  0  0  0  0  0
   -0.8137    1.2940    0.0000 C   0  0  0  0  0  0  0  0  0  0  0  0
   -0.8137   -1.6956    0.0000 C   0  0  0  0  0  0  0  0  0  0  0  0
   -3.3984   -1.6956    0.0000 C   0  0  0  0  0  0  0  0  0  0  0  0
   -3.3984   -3.2008    0.0000 C   0  0  0  0  0  0  0  0  0  0  0  0
   -0.8137   -3.2008    0.0000 C   0  0  0  0  0  0  0  0  0  0  0  0
   -2.1216   -3.9482    0.0000 C   0  0  0  0  0  0  0  0  0  0  0  0
  2  1  1  0  0  0  0
  3  2  1  0  0  0  0
  4  5  1  0  0  0  0
  5  2  1  0  0  0  0
  6  3  2  0  0  0  0
  7  3  1  0  0  0  0
  8  7  2  0  0  0  0
  9  6  1  0  0  0  0
 10  8  1  0  0  0  0
  9 10  2  0  0  0  0
M  END
> <Value>
7.6020599913279625

> <Relation>
=

> <SourceURI>
mol:CHEMBL1159817

$$$$

Generated by Molecular Materials Informatics

 11 11  0  0  0  0  0  0  0  0999 V2000
   -6.2369   -0.6855    0.0000 N   0  0  0  0  0  0  0  0  0  0  0  0
   -4.7082    1.9143    0.0000 S   0  0  0  0  0  0  0  0  0  0  0  0
   -3.9907   -1.9958    0.0000 C   0  0  0  0  0  0  0  0  0  0  0  0
   -4.7187   -0.6855    0.0000 C   0  0  0  0  0  0  0  0  0  0  0  0
   -2.4726   -1.9958    0.0000 C   0  0  0  0  0  0  0  0  0  0  0  0
   -3.9595    0.6248    0.0000 C   0  0  0  0  0  0  0  0  0  0  0  0
   -1.7134   -0.7062    0.0000 C   0  0  0  0  0  0  0  0  0  0  0  0
   -1.7239   -3.3060    0.0000 C   0  0  0  0  0  0  0  0  0  0  0  0
   -0.2159   -0.7167    0.0000 C   0  0  0  0  0  0  0  0  0  0  0  0
   -0.2159   -3.3060    0.0000 C   0  0  0  0  0  0  0  0  0  0  0  0
    0.5328   -2.0165    0.0000 C   0  0  0  0  0  0  0  0  0  0  0  0
  2  6  1  0  0  0  0
  3  4  1  0  0  0  0
  4  1  1  0  0  0  0
  5  3  1  0  0  0  0
  6  4  1  0  0  0  0
  7  5  1  0  0  0  0
  8  5  2  0  0  0  0
  9  7  2  0  0  0  0
 10  8  1  0  0  0  0
 11 10  2  0  0  0  0
  9 11  1  0  0  0  0
M  END
> <Value>
7.522878745280337

> <Relation>
=

> <SourceURI>
mol:CHEMBL414393

$$$$

Generated by Molecular Materials Informatics

 12 12  0  0  0  0  0  0  0  0999 V2000
   -8.6134    0.1437    0.0000 N   0  0  0  0  0  0  0  0  0  0  0  0
   -4.8936   -1.1722    0.0000 C   0  0  0  0  0  0  0  0  0  0  0  0
   -1.8890   -1.1928    0.0000 C   0  0  0  0  0  0  0  0  0  0  0  0
   -6.3856   -1.1722    0.0000 C   0  0  0  0  0  0  0  0  0  0  0  0
   -7.1005    2.7443    0.0000 S   0  0  0  0  0  0  0  0  0  0  0  0
   -7.1316    0.1333    0.0000 C   0  0  0  0  0  0  0  0  0  0  0  0
   -4.1166    0.1127    0.0000 C   0  0  0  0  0  0  0  0  0  0  0  0
   -4.1476   -2.4777    0.0000 C   0  0  0  0  0  0  0  0  0  0  0  0
   -2.6246    0.1022    0.0000 C   0  0  0  0  0  0  0  0  0  0  0  0
   -2.6246   -2.4777    0.0000 C   0  0  0  0  0  0  0  0  0  0  0  0
   -0.3866   -1.1928    0.0000 O   0  0  0  0  0  0  0  0  0  0  0  0
   -6.3650    1.4388    0.0000 C   0  0  0  0  0  0  0  0  0  0  0  0
  2  4  1  0  0  0  0
  3 10  2  0  0  0  0
  4  6  1  0  0  0  0
  5 12  1  0  0  0  0
  6  1  1  0  0  0  0
  7  2  1  0  0  0  0
  8  2  2  0  0  0  0
  9  7  2  0  0  0  0
 10  8  1  0  0  0  0
 11  3  1  0  0  0  0
 12  6  1  0  0  0  0
  9  3  1  0  0  0  0
M  END
> <Value>
7.346787486224656

> <Relation>
=

> <SourceURI>
mol:CHEMBL1159818

$$$$

Generated by Molecular Materials Informatics

  7  6  0  0  0  0  0  0  0  0999 V2000
   -1.7677   -2.1750    0.0000 N   0  0  0  0  0  0  0  0  0  0  0  0
   -1.7677   -0.6750    0.0000 C   0  0  0  0  0  0  0  0  0  0  0  0
   -3.0802    1.5750    0.0000 S   0  0  0  0  0  0  0  0  0  0  0  0
    0.8261   -0.6750    0.0000 S   0  0  0  0  0  0  0  0  0  0  0  0
   -3.0802    0.0750    0.0000 C   0  0  0  0  0  0  0  0  0  0  0  0
   -0.4552    0.0750    0.0000 C   0  0  0  0  0  0  0  0  0  0  0  0
    0.8261   -2.1750    0.0000 C   0  0  0  0  0  0  0  0  0  0  0  0
  2  1  1  0  0  0  0
  3  5  1  0  0  0  0
  4  6  1  0  0  0  0
  5  2  1  0  0  0  0
  6  2  1  0  0  0  0
  7  4  1  0  0  0  0
M  END
> <Value>
7.698970004336019

> <Relation>
=

> <SourceURI>
mol:CHEMBL1159811

$$$$

Generated by Molecular Materials Informatics

 13 13  0  0  0  0  0  0  0  0999 V2000
   -3.7357    0.2794    0.0000 N   0  0  0  0  0  0  0  0  0  0  0  0
   -2.4289    1.0157    0.0000 C   0  0  0  0  0  0  0  0  0  0  0  0
   -1.1427   -1.2246    0.0000 O   0  0  0  0  0  0  0  0  0  0  0  0
   -1.1220    3.2664    0.0000 S   0  0  0  0  0  0  0  0  0  0  0  0
    0.1331   -3.4961    0.0000 C   0  0  0  0  0  0  0  0  0  0  0  0
   -2.4184    2.5197    0.0000 C   0  0  0  0  0  0  0  0  0  0  0  0
   -1.1427    0.2689    0.0000 C   0  0  0  0  0  0  0  0  0  0  0  0
    0.1537   -1.9921    0.0000 C   0  0  0  0  0  0  0  0  0  0  0  0
    1.4399   -4.2428    0.0000 C   0  0  0  0  0  0  0  0  0  0  0  0
   -1.1531   -4.2324    0.0000 C   0  0  0  0  0  0  0  0  0  0  0  0
   -1.1738   -5.7259    0.0000 C   0  0  0  0  0  0  0  0  0  0  0  0
    1.4399   -5.7364    0.0000 C   0  0  0  0  0  0  0  0  0  0  0  0
    0.1331   -6.4831    0.0000 C   0  0  0  0  0  0  0  0  0  0  0  0
  2  1  1  0  0  0  0
  3  7  1  0  0  0  0
  4  6  1  0  0  0  0
  5  8  1  0  0  0  0
  6  2  1  0  0  0  0
  7  2  1  0  0  0  0
  8  3  1  0  0  0  0
  9  5  1  0  0  0  0
 10  5  2  0  0  0  0
 11 10  1  0  0  0  0
 12  9  2  0  0  0  0
 13 11  2  0  0  0  0
 13 12  1  0  0  0  0
M  END
> <Value>
7.251811972993799

> <Relation>
=

> <SourceURI>
mol:CHEMBL1159815

$$$$

Generated by Molecular Materials Informatics

 13 13  0  0  0  0  0  0  0  0999 V2000
   -5.5913    1.1332    0.0000 N   0  0  0  0  0  0  0  0  0  0  0  0
   -2.9813   -0.3955    0.0000 S   0  0  0  0  0  0  0  0  0  0  0  0
   -4.2811    1.8819    0.0000 C   0  0  0  0  0  0  0  0  0  0  0  0
   -2.9708    4.1280    0.0000 S   0  0  0  0  0  0  0  0  0  0  0  0
   -1.6917   -2.6624    0.0000 C   0  0  0  0  0  0  0  0  0  0  0  0
   -2.9813    1.1124    0.0000 C   0  0  0  0  0  0  0  0  0  0  0  0
   -1.6917   -1.1442    0.0000 C   0  0  0  0  0  0  0  0  0  0  0  0
   -4.2604    3.3793    0.0000 C   0  0  0  0  0  0  0  0  0  0  0  0
   -0.3920   -3.4111    0.0000 C   0  0  0  0  0  0  0  0  0  0  0  0
   -3.0020   -3.3904    0.0000 C   0  0  0  0  0  0  0  0  0  0  0  0
   -3.0125   -4.8878    0.0000 C   0  0  0  0  0  0  0  0  0  0  0  0
   -0.3920   -4.9085    0.0000 C   0  0  0  0  0  0  0  0  0  0  0  0
   -1.7022   -5.6572    0.0000 C   0  0  0  0  0  0  0  0  0  0  0  0
  2  6  1  0  0  0  0
  3  1  1  0  0  0  0
  4  8  1  0  0  0  0
  5  7  1  0  0  0  0
  6  3  1  0  0  0  0
  7  2  1  0  0  0  0
  8  3  1  0  0  0  0
  9  5  1  0  0  0  0
 10  5  2  0  0  0  0
 11 10  1  0  0  0  0
 12  9  2  0  0  0  0
 13 11  2  0  0  0  0
 13 12  1  0  0  0  0
M  END
> <Value>
7.045757490560675

> <Relation>
=

> <SourceURI>
mol:CHEMBL1159814

$$$$

Generated by Molecular Materials Informatics

  8  7  0  0  0  0  0  0  0  0999 V2000
   -4.3764   -2.3917    0.0000 N   0  0  0  0  0  0  0  0  0  0  0  0
   -5.6788    1.3500    0.0000 S   0  0  0  0  0  0  0  0  0  0  0  0
   -3.0740   -0.1385    0.0000 C   0  0  0  0  0  0  0  0  0  0  0  0
   -4.3764   -0.8827    0.0000 C   0  0  0  0  0  0  0  0  0  0  0  0
   -5.6788   -0.1385    0.0000 C   0  0  0  0  0  0  0  0  0  0  0  0
   -1.7821   -0.8827    0.0000 C   0  0  0  0  0  0  0  0  0  0  0  0
   -1.7821   -2.3917    0.0000 C   0  0  0  0  0  0  0  0  0  0  0  0
   -0.5003   -0.1385    0.0000 C   0  0  0  0  0  0  0  0  0  0  0  0
  2  5  1  0  0  0  0
  3  4  1  0  0  0  0
  4  1  1  0  0  0  0
  5  4  1  0  0  0  0
  6  3  1  0  0  0  0
  7  6  1  0  0  0  0
  8  6  1  0  0  0  0
M  END
> <Value>
7.657577319177793

> <Relation>
=

> <SourceURI>
mol:CHEMBL1159806

$$$$

Generated by Molecular Materials Informatics

 18 19  0  0  0  0  0  0  0  0999 V2000
   -3.5906   -0.8198    0.0000 N   0  0  0  0  0  0  0  0  0  0  0  0
   -4.3385    0.4890    0.0000 C   0  0  0  0  0  0  0  0  0  0  0  0
   -2.0948   -0.8198    0.0000 C   0  0  0  0  0  0  0  0  0  0  0  0
   -1.3469   -2.1287    0.0000 C   0  0  0  0  0  0  0  0  0  0  0  0
   -2.0741    1.7771    0.0000 S   0  0  0  0  0  0  0  0  0  0  0  0
    0.1489   -2.1287    0.0000 C   0  0  0  0  0  0  0  0  0  0  0  0
   -5.8447    0.4995    0.0000 C   0  0  0  0  0  0  0  0  0  0  0  0
   -1.3469    0.4890    0.0000 C   0  0  0  0  0  0  0  0  0  0  0  0
    0.9175   -0.8405    0.0000 C   0  0  0  0  0  0  0  0  0  0  0  0
    0.8968   -3.4375    0.0000 C   0  0  0  0  0  0  0  0  0  0  0  0
   -6.5821    1.8083    0.0000 C   0  0  0  0  0  0  0  0  0  0  0  0
   -6.5926   -0.7887    0.0000 C   0  0  0  0  0  0  0  0  0  0  0  0
    2.4238   -0.8510    0.0000 C   0  0  0  0  0  0  0  0  0  0  0  0
   -8.0779    1.8083    0.0000 C   0  0  0  0  0  0  0  0  0  0  0  0
   -8.1091   -0.7887    0.0000 C   0  0  0  0  0  0  0  0  0  0  0  0
    2.4133   -3.4375    0.0000 C   0  0  0  0  0  0  0  0  0  0  0  0
    3.1405   -2.1493    0.0000 C   0  0  0  0  0  0  0  0  0  0  0  0
   -8.8363    0.5201    0.0000 C   0  0  0  0  0  0  0  0  0  0  0  0
  2  1  1  0  0  0  0
  3  1  1  0  0  0  0
  4  3  1  0  0  0  0
  5  8  1  0  0  0  0
  6  4  1  0  0  0  0
  7  2  1  0  0  0  0
  8  3  1  0  0  0  0
  9  6  1  0  0  0  0
 10  6  2  0  0  0  0
 11  7  2  0  0  0  0
 12  7  1  0  0  0  0
 13  9  2  0  0  0  0
 14 11  1  0  0  0  0
 15 12  2  0  0  0  0
 16 10  1  0  0  0  0
 17 16  2  0  0  0  0
 18 15  1  0  0  0  0
 14 18  2  0  0  0  0
 13 17  1  0  0  0  0
M  END
> <Value>
3.795880017344075

> <Relation>
=

> <SourceURI>
mol:CHEMBL1159808

$$$$

Generated by Molecular Materials Informatics

 14 14  0  0  0  0  0  0  0  0999 V2000
    3.4167   -1.8772    0.0000 C   0  0  0  0  0  0  0  0  0  0  0  0
    4.1625   -3.1719    0.0000 C   0  0  0  0  0  0  0  0  0  0  0  0
    1.9045   -4.4564    0.0000 N   0  0  0  0  0  0  0  0  0  0  0  0
    3.3961   -4.4564    0.0000 C   0  0  0  0  0  0  0  0  0  0  0  0
    1.9045   -1.8668    0.0000 O   0  0  0  0  0  0  0  0  0  0  0  0
    4.1729   -0.5721    0.0000 N   0  0  0  0  0  0  0  0  0  0  0  0
    4.1419   -5.7615    0.0000 C   0  0  0  0  0  0  0  0  0  0  0  0
    3.4272    0.7330    0.0000 O   0  0  0  0  0  0  0  0  0  0  0  0
    5.6541   -5.7821    0.0000 C   0  0  0  0  0  0  0  0  0  0  0  0
    6.3792   -7.0872    0.0000 C   0  0  0  0  0  0  0  0  0  0  0  0
    6.3998   -4.4874    0.0000 C   0  0  0  0  0  0  0  0  0  0  0  0
    7.8914   -7.0872    0.0000 C   0  0  0  0  0  0  0  0  0  0  0  0
    7.9018   -4.4874    0.0000 C   0  0  0  0  0  0  0  0  0  0  0  0
    8.6372   -5.7925    0.0000 C   0  0  0  0  0  0  0  0  0  0  0  0
  2  1  1  0  0  0  0
  3  4  1  0  0  0  0
  4  2  1  0  0  0  0
  5  1  2  0  0  0  0
  6  1  1  0  0  0  0
  7  4  1  0  0  0  0
  8  6  1  0  0  0  0
  9  7  1  0  0  0  0
 10  9  2  0  0  0  0
 11  9  1  0  0  0  0
 12 10  1  0  0  0  0
 13 11  2  0  0  0  0
 14 13  1  0  0  0  0
 12 14  2  0  0  0  0
M  END
> <Value>
4.1249387366083

> <Relation>
=

> <SourceURI>
mol:CHEMBL26989

$$$$

Generated by Molecular Materials Informatics

 10  9  0  0  0  0  0  0  0  0999 V2000
    4.4474   -6.1115    0.0000 N   0  0  0  0  0  0  0  0  0  0  0  0
    7.0521   -4.6231    0.0000 S   0  0  0  0  0  0  0  0  0  0  0  0
    8.3235   -3.8789    0.0000 C   0  0  0  0  0  0  0  0  0  0  0  0
    4.4474   -4.6231    0.0000 C   0  0  0  0  0  0  0  0  0  0  0  0
    5.7498   -3.8789    0.0000 C   0  0  0  0  0  0  0  0  0  0  0  0
    3.1450   -2.3594    0.0000 S   0  0  0  0  0  0  0  0  0  0  0  0
    3.1450   -3.8789    0.0000 C   0  0  0  0  0  0  0  0  0  0  0  0
    9.6259   -4.6231    0.0000 C   0  0  0  0  0  0  0  0  0  0  0  0
    8.3235   -2.3594    0.0000 C   0  0  0  0  0  0  0  0  0  0  0  0
    9.3778   -2.8141    0.0000 C   0  0  0  0  0  0  0  0  0  0  0  0
  2  5  1  0  0  0  0
  3  2  1  0  0  0  0
  4  1  1  0  0  0  0
  5  4  1  0  0  0  0
  6  7  1  0  0  0  0
  7  4  1  0  0  0  0
  8  3  1  0  0  0  0
  9  3  1  0  0  0  0
 10  3  1  0  0  0  0
M  END
> <Value>
7.3979400086720375

> <Relation>
=

> <SourceURI>
mol:CHEMBL1159805

$$$$

Generated by Molecular Materials Informatics

 18 19  0  0  0  0  0  0  0  0999 V2000
   -5.5784   -1.0254    0.0000 N   0  0  0  0  0  0  0  0  0  0  0  0
   -4.0578    1.5709    0.0000 S   0  0  0  0  0  0  0  0  0  0  0  0
   -3.3234   -2.3288    0.0000 C   0  0  0  0  0  0  0  0  0  0  0  0
   -4.0682   -1.0358    0.0000 C   0  0  0  0  0  0  0  0  0  0  0  0
   -1.8338   -2.3392    0.0000 C   0  0  0  0  0  0  0  0  0  0  0  0
   -1.8028    2.8433    0.0000 C   0  0  0  0  0  0  0  0  0  0  0  0
   -3.2924    2.8537    0.0000 C   0  0  0  0  0  0  0  0  0  0  0  0
   -3.3130    0.2676    0.0000 C   0  0  0  0  0  0  0  0  0  0  0  0
   -1.0786   -1.0358    0.0000 C   0  0  0  0  0  0  0  0  0  0  0  0
   -1.0890   -3.6426    0.0000 C   0  0  0  0  0  0  0  0  0  0  0  0
   -1.0786    1.5503    0.0000 C   0  0  0  0  0  0  0  0  0  0  0  0
   -1.0580    4.1467    0.0000 C   0  0  0  0  0  0  0  0  0  0  0  0
    0.4110   -1.0564    0.0000 C   0  0  0  0  0  0  0  0  0  0  0  0
    0.4316    1.5399    0.0000 C   0  0  0  0  0  0  0  0  0  0  0  0
    0.4420    4.1467    0.0000 C   0  0  0  0  0  0  0  0  0  0  0  0
    0.4110   -3.6426    0.0000 C   0  0  0  0  0  0  0  0  0  0  0  0
    1.1557   -2.3392    0.0000 C   0  0  0  0  0  0  0  0  0  0  0  0
    1.1868    2.8227    0.0000 C   0  0  0  0  0  0  0  0  0  0  0  0
  2  8  1  0  0  0  0
  3  4  1  0  0  0  0
  4  1  1  0  0  0  0
  5  3  1  0  0  0  0
  6  7  1  0  0  0  0
  7  2  1  0  0  0  0
  8  4  1  0  0  0  0
  9  5  1  0  0  0  0
 10  5  2  0  0  0  0
 11  6  2  0  0  0  0
 12  6  1  0  0  0  0
 13  9  2  0  0  0  0
 14 11  1  0  0  0  0
 15 12  2  0  0  0  0
 16 10  1  0  0  0  0
 17 16  2  0  0  0  0
 18 15  1  0  0  0  0
 13 17  1  0  0  0  0
 14 18  2  0  0  0  0
M  END
> <Value>
4.096910013008056

> <Relation>
=

> <SourceURI>
mol:CHEMBL1159816

$$$$

Generated by Molecular Materials Informatics

  9  8  0  0  0  0  0  0  0  0999 V2000
    3.5384   -2.8218    0.0000 S   0  3  0  0  0  0  0  0  0  0  0  0
    7.4388   -5.0642    0.0000 N   0  0  0  0  0  0  0  0  0  0  0  0
    3.5355   -1.3218    0.0000 O   0  5  0  0  0  0  0  0  0  0  0  0
    6.1323   -2.8167    0.0000 C   0  0  0  0  0  0  0  0  0  0  0  0
    4.8419   -3.5692    0.0000 C   0  0  0  0  0  0  0  0  0  0  0  0
    8.7439   -1.3114    0.0000 S   0  0  0  0  0  0  0  0  0  0  0  0
    7.4357   -3.5642    0.0000 C   0  0  0  0  0  0  0  0  0  0  0  0
    2.2480   -3.5745    0.0000 C   0  0  0  0  0  0  0  0  0  0  0  0
    8.7469   -2.8114    0.0000 C   0  0  0  0  0  0  0  0  0  0  0  0
  2  7  1  0  0  0  0
  3  1  1  0  0  0  0
  4  5  1  0  0  0  0
  5  1  1  0  0  0  0
  6  9  1  0  0  0  0
  7  4  1  0  0  0  0
  8  1  1  0  0  0  0
  9  7  1  0  0  0  0
M  CHG  2   1   1   3  -1
M  END
> <Value>
7.698970004336019

> <Relation>
=

> <SourceURI>
mol:CHEMBL1159809

$$$$

Generated by Molecular Materials Informatics

  9  8  0  0  0  0  0  0  0  0999 V2000
   -4.2243   -2.5446    0.0000 N   0  0  0  0  0  0  0  0  0  0  0  0
   -5.5163    1.1971    0.0000 S   0  0  0  0  0  0  0  0  0  0  0  0
   -2.9220   -0.2913    0.0000 C   0  0  0  0  0  0  0  0  0  0  0  0
   -4.2243   -1.0356    0.0000 C   0  0  0  0  0  0  0  0  0  0  0  0
   -2.9220   -3.2888    0.0000 C   0  0  0  0  0  0  0  0  0  0  0  0
   -5.5163   -0.2913    0.0000 C   0  0  0  0  0  0  0  0  0  0  0  0
   -1.6402   -1.0356    0.0000 C   0  0  0  0  0  0  0  0  0  0  0  0
   -0.3378   -0.2913    0.0000 C   0  0  0  0  0  0  0  0  0  0  0  0
   -1.6402   -2.5446    0.0000 C   0  0  0  0  0  0  0  0  0  0  0  0
  2  6  1  0  0  0  0
  3  4  1  0  0  0  0
  4  1  1  0  0  0  0
  5  1  1  0  0  0  0
  6  4  1  0  0  0  0
  7  3  1  0  0  0  0
  8  7  1  0  0  0  0
  9  7  1  0  0  0  0
M  END
> <Value>
5.3979400086720375

> <Relation>
=

> <SourceURI>
mol:CHEMBL1159807

$$$$

Generated by Molecular Materials Informatics

  8  7  0  0  0  0  0  0  0  0999 V2000
   -2.7396   -2.6129    0.0000 N   0  0  0  0  0  0  0  0  0  0  0  0
   -4.0430    1.1420    0.0000 S   0  0  0  0  0  0  0  0  0  0  0  0
    1.1395   -0.3681    0.0000 S   0  0  0  0  0  0  0  0  0  0  0  0
   -2.7396   -1.1129    0.0000 C   0  0  0  0  0  0  0  0  0  0  0  0
   -1.4569   -0.3681    0.0000 C   0  0  0  0  0  0  0  0  0  0  0  0
   -0.1535   -1.1129    0.0000 C   0  0  0  0  0  0  0  0  0  0  0  0
   -4.0430   -0.3681    0.0000 C   0  0  0  0  0  0  0  0  0  0  0  0
    2.4222   -1.1129    0.0000 C   0  0  0  0  0  0  0  0  0  0  0  0
  2  7  1  0  0  0  0
  3  6  1  0  0  0  0
  4  1  1  0  0  0  0
  5  4  1  0  0  0  0
  6  5  1  0  0  0  0
  7  4  1  0  0  0  0
  8  3  1  0  0  0  0
M  END
> <Value>
7.958607314841775

> <Relation>
=

> <SourceURI>
mol:CHEMBL1159812

$$$$

Generated by Molecular Materials Informatics

 14 14  0  0  0  0  0  0  0  0999 V2000
   -4.9842   -0.2095    0.0000 P   0  0  0  0  0  0  0  0  0  0  0  0
   -4.2550   -1.5012    0.0000 C   0  0  0  0  0  0  0  0  0  0  0  0
   -6.3173   -0.9387    0.0000 O   0  0  0  0  0  0  0  0  0  0  0  0
   -6.5048   -2.7823    0.0000 N   0  0  0  0  0  0  0  0  0  0  0  0
   -5.0050   -2.8030    0.0000 C   0  0  0  0  0  0  0  0  0  0  0  0
   -3.6926    0.5611    0.0000 O   0  0  0  0  0  0  0  0  0  0  0  0
   -5.7549    1.1028    0.0000 O   0  0  0  0  0  0  0  0  0  0  0  0
   -4.2550   -4.0947    0.0000 C   0  0  0  0  0  0  0  0  0  0  0  0
   -2.7552   -4.1154    0.0000 C   0  0  0  0  0  0  0  0  0  0  0  0
   -2.0158   -5.4070    0.0000 C   0  0  0  0  0  0  0  0  0  0  0  0
   -2.0053   -2.8135    0.0000 C   0  0  0  0  0  0  0  0  0  0  0  0
   -0.5054   -5.4070    0.0000 C   0  0  0  0  0  0  0  0  0  0  0  0
   -0.5054   -2.8343    0.0000 C   0  0  0  0  0  0  0  0  0  0  0  0
    0.2340   -4.1259    0.0000 C   0  0  0  0  0  0  0  0  0  0  0  0
  2  1  1  0  0  0  0
  3  1  2  0  0  0  0
  4  5  1  0  0  0  0
  5  2  1  0  0  0  0
  6  1  1  0  0  0  0
  7  1  1  0  0  0  0
  8  5  1  0  0  0  0
  9  8  1  0  0  0  0
 10  9  2  0  0  0  0
 11  9  1  0  0  0  0
 12 10  1  0  0  0  0
 13 11  2  0  0  0  0
 14 13  1  0  0  0  0
 12 14  2  0  0  0  0
M  END
> <Value>
3.3010299956639813

> <Relation>
=

> <SourceURI>
mol:CHEMBL26845

$$$$

Generated by Molecular Materials Informatics

  8  7  0  0  0  0  0  0  0  0999 V2000
    3.8472   -2.6538    0.0000 S   0  3  0  0  0  0  0  0  0  0  0  0
    5.1334   -3.3908    0.0000 C   0  0  0  0  0  0  0  0  0  0  0  0
    3.8351   -5.6464    0.0000 N   0  0  0  0  0  0  0  0  0  0  0  0
    3.8393   -1.1537    0.0000 O   0  5  0  0  0  0  0  0  0  0  0  0
    5.1413   -4.8907    0.0000 C   0  0  0  0  0  0  0  0  0  0  0  0
    7.7209   -4.8911    0.0000 S   0  0  0  0  0  0  0  0  0  0  0  0
    2.5410   -3.4095    0.0000 C   0  0  0  0  0  0  0  0  0  0  0  0
    6.4325   -5.6365    0.0000 C   0  0  0  0  0  0  0  0  0  0  0  0
  2  1  1  0  0  0  0
  3  5  1  0  0  0  0
  4  1  1  0  0  0  0
  5  2  1  0  0  0  0
  6  8  1  0  0  0  0
  7  1  1  0  0  0  0
  8  5  1  0  0  0  0
M  CHG  2   1   1   4  -1
M  END
> <Value>
7.6777807052660805

> <Relation>
=

> <SourceURI>
mol:CHEMBL1159810

$$$$

Generated by Molecular Materials Informatics

 15 16  0  0  0  0  0  0  0  0999 V2000
   -2.3359   -0.7948    0.0000 C   0  0  0  0  0  0  0  0  0  0  0  0
   -3.8333   -0.7948    0.0000 C   0  0  0  0  0  0  0  0  0  0  0  0
   -8.3568   -0.7636    0.0000 N   0  0  0  0  0  0  0  0  0  0  0  0
   -4.5820   -2.0946    0.0000 C   0  0  0  0  0  0  0  0  0  0  0  0
   -1.5872   -2.1051    0.0000 C   0  0  0  0  0  0  0  0  0  0  0  0
   -2.3359   -3.4049    0.0000 C   0  0  0  0  0  0  0  0  0  0  0  0
   -6.0900   -2.0739    0.0000 C   0  0  0  0  0  0  0  0  0  0  0  0
   -3.8438   -3.4049    0.0000 C   0  0  0  0  0  0  0  0  0  0  0  0
   -6.8282    1.8257    0.0000 S   0  0  0  0  0  0  0  0  0  0  0  0
   -6.8387   -0.7636    0.0000 C   0  0  0  0  0  0  0  0  0  0  0  0
   -1.5872    0.4842    0.0000 C   0  0  0  0  0  0  0  0  0  0  0  0
   -6.0795    0.5259    0.0000 C   0  0  0  0  0  0  0  0  0  0  0  0
   -0.1002   -2.1051    0.0000 C   0  0  0  0  0  0  0  0  0  0  0  0
   -0.1002    0.4842    0.0000 C   0  0  0  0  0  0  0  0  0  0  0  0
    0.6485   -0.8260    0.0000 C   0  0  0  0  0  0  0  0  0  0  0  0
  2  1  2  0  0  0  0
  3 10  1  0  0  0  0
  4  2  1  0  0  0  0
  5  1  1  0  0  0  0
  6  5  2  0  0  0  0
  7  4  1  0  0  0  0
  8  6  1  0  0  0  0
  9 12  1  0  0  0  0
 10  7  1  0  0  0  0
 11  1  1  0  0  0  0
 12 10  1  0  0  0  0
 13  5  1  0  0  0  0
 14 11  2  0  0  0  0
 15 14  1  0  0  0  0
 13 15  2  0  0  0  0
  4  8  2  0  0  0  0
M  END
> <Value>
6.886056647693163

> <Relation>
=

> <SourceURI>
mol:CHEMBL1159813

$$$$

Generated by Molecular Materials Informatics

 22 22  0  0  0  0  0  0  0  0999 V2000
   -0.5674   -3.8584    0.0000 C   0  0  0  0  0  0  0  0  0  0  0  0
   -1.8794   -3.1399    0.0000 C   0  0  0  0  0  0  0  0  0  0  0  0
    0.7133   -3.0775    0.0000 N   0  0  0  0  0  0  0  0  0  0  0  0
    3.3060   -3.0150    0.0000 C   0  0  0  0  0  0  0  0  0  0  0  0
    4.6180   -3.7335    0.0000 C   0  0  0  0  0  0  0  0  0  0  0  0
   -4.4826   -3.2024    0.0000 C   0  0  0  0  0  0  0  0  0  0  0  0
   -3.1601   -3.9209    0.0000 C   0  0  0  0  0  0  0  0  0  0  0  0
   -0.5362   -5.3578    0.0000 O   0  0  0  0  0  0  0  0  0  0  0  0
   -1.9211   -1.6406    0.0000 C   0  0  0  0  0  0  0  0  0  0  0  0
    2.0253   -3.7959    0.0000 C   0  0  0  0  0  0  0  0  0  0  0  0
    4.6492   -5.2328    0.0000 O   0  0  0  0  0  0  0  0  0  0  0  0
   -4.5138   -1.7030    0.0000 O   0  0  0  0  0  0  0  0  0  0  0  0
   -5.7528   -3.9626    0.0000 N   0  0  0  0  0  0  0  0  0  0  0  0
    5.8987   -2.9525    0.0000 O   0  0  0  0  0  0  0  0  0  0  0  0
   -2.6915   -0.3391    0.0000 C   0  0  0  0  0  0  0  0  0  0  0  0
   -5.6903   -5.3995    0.0000 O   0  0  0  0  0  0  0  0  0  0  0  0
    2.0565   -5.2953    0.0000 C   0  0  0  0  0  0  0  0  0  0  0  0
   -4.1909   -0.3391    0.0000 C   0  0  0  0  0  0  0  0  0  0  0  0
   -1.9418    0.9834    0.0000 C   0  0  0  0  0  0  0  0  0  0  0  0
   -2.6915    2.2953    0.0000 C   0  0  0  0  0  0  0  0  0  0  0  0
   -4.9719    0.9521    0.0000 C   0  0  0  0  0  0  0  0  0  0  0  0
   -4.2222    2.2848    0.0000 C   0  0  0  0  0  0  0  0  0  0  0  0
  2  1  1  0  0  0  0
  3  1  1  0  0  0  0
  4 10  1  0  0  0  0
  5  4  1  0  0  0  0
  6  7  1  0  0  0  0
  7  2  1  0  0  0  0
  8  1  2  0  0  0  0
  9  2  1  0  0  0  0
 10  3  1  0  0  0  0
 11  5  2  0  0  0  0
 12  6  2  0  0  0  0
 13  6  1  0  0  0  0
 14  5  1  0  0  0  0
 15  9  1  0  0  0  0
 16 13  1  0  0  0  0
 17 10  1  0  0  0  0
 18 15  1  0  0  0  0
 19 15  2  0  0  0  0
 20 19  1  0  0  0  0
 21 18  2  0  0  0  0
 22 20  2  0  0  0  0
 22 21  1  0  0  0  0
M  END
> <Value>
6.403785972334396

> <Error>
0.10429196663065632

> <Relation>
=

> <SourceURI>
mol:CHEMBL36094

$$$$

Generated by Molecular Materials Informatics

 22 22  0  0  0  0  0  0  0  0999 V2000
   -0.5108   -1.7771    0.0000 C   0  0  0  0  0  0  0  0  0  0  0  0
   -1.8227   -1.0379    0.0000 C   0  0  0  0  0  0  0  0  0  0  0  0
   -4.4154   -1.1211    0.0000 C   0  0  0  0  0  0  0  0  0  0  0  0
   -3.1034   -1.8395    0.0000 C   0  0  0  0  0  0  0  0  0  0  0  0
    5.9759   -0.8712    0.0000 C   0  0  0  0  0  0  0  0  0  0  0  0
   -1.8540    0.4407    0.0000 C   0  0  0  0  0  0  0  0  0  0  0  0
   -0.4796   -3.2764    0.0000 O   0  0  0  0  0  0  0  0  0  0  0  0
   -4.4466    0.3782    0.0000 O   0  0  0  0  0  0  0  0  0  0  0  0
    5.9239    0.6281    0.0000 O   0  0  0  0  0  0  0  0  0  0  0  0
    0.7699   -0.9962    0.0000 N   0  0  0  0  0  0  0  0  0  0  0  0
   -5.6753   -1.8813    0.0000 N   0  0  0  0  0  0  0  0  0  0  0  0
    7.2878   -1.5897    0.0000 O   0  0  0  0  0  0  0  0  0  0  0  0
   -2.6141    1.7422    0.0000 C   0  0  0  0  0  0  0  0  0  0  0  0
   -5.6128   -3.3182    0.0000 O   0  0  0  0  0  0  0  0  0  0  0  0
    4.6952   -1.6521    0.0000 C   0  0  0  0  0  0  0  0  0  0  0  0
    2.0818   -1.7146    0.0000 C   0  0  0  0  0  0  0  0  0  0  0  0
   -4.1342    1.7422    0.0000 C   0  0  0  0  0  0  0  0  0  0  0  0
   -1.8645    3.0646    0.0000 C   0  0  0  0  0  0  0  0  0  0  0  0
    3.3625   -0.9337    0.0000 C   0  0  0  0  0  0  0  0  0  0  0  0
   -4.8944    3.0333    0.0000 C   0  0  0  0  0  0  0  0  0  0  0  0
   -2.6349    4.3973    0.0000 C   0  0  0  0  0  0  0  0  0  0  0  0
   -4.1447    4.3660    0.0000 C   0  0  0  0  0  0  0  0  0  0  0  0
  2  1  1  0  0  0  0
  3  4  1  0  0  0  0
  4  2  1  0  0  0  0
  5 15  1  0  0  0  0
  6  2  1  0  0  0  0
  7  1  2  0  0  0  0
  8  3  2  0  0  0  0
  9  5  2  0  0  0  0
 10  1  1  0  0  0  0
 11  3  1  0  0  0  0
 12  5  1  0  0  0  0
 13  6  1  0  0  0  0
 14 11  1  0  0  0  0
 15 19  1  0  0  0  0
 16 10  1  0  0  0  0
 17 13  1  0  0  0  0
 18 13  2  0  0  0  0
 19 16  1  0  0  0  0
 20 17  2  0  0  0  0
 21 18  1  0  0  0  0
 22 21  2  0  0  0  0
 22 20  1  0  0  0  0
M  END
> <Value>
5.823908740944319

> <Relation>
=

> <SourceURI>
mol:CHEMBL417878

$$$$

Generated by Molecular Materials Informatics

 21 21  0  0  0  0  0  0  0  0999 V2000
   -0.3048   -2.5938    0.0000 C   0  0  0  0  0  0  0  0  0  0  0  0
   -1.6168   -1.8754    0.0000 C   0  0  0  0  0  0  0  0  0  0  0  0
   -4.2094   -1.9379    0.0000 C   0  0  0  0  0  0  0  0  0  0  0  0
    4.9012   -2.4689    0.0000 C   0  0  0  0  0  0  0  0  0  0  0  0
   -2.8975   -2.6563    0.0000 C   0  0  0  0  0  0  0  0  0  0  0  0
    3.5685   -1.7504    0.0000 C   0  0  0  0  0  0  0  0  0  0  0  0
   -1.6480   -0.3760    0.0000 C   0  0  0  0  0  0  0  0  0  0  0  0
   -0.2736   -4.0932    0.0000 O   0  0  0  0  0  0  0  0  0  0  0  0
   -4.2406   -0.4385    0.0000 O   0  0  0  0  0  0  0  0  0  0  0  0
    4.9324   -3.9682    0.0000 O   0  0  0  0  0  0  0  0  0  0  0  0
    0.9759   -1.8129    0.0000 N   0  0  0  0  0  0  0  0  0  0  0  0
   -5.4693   -2.7188    0.0000 N   0  0  0  0  0  0  0  0  0  0  0  0
    2.2878   -2.5314    0.0000 C   0  0  0  0  0  0  0  0  0  0  0  0
    6.1818   -1.6880    0.0000 O   0  0  0  0  0  0  0  0  0  0  0  0
   -2.4082    0.9151    0.0000 C   0  0  0  0  0  0  0  0  0  0  0  0
   -5.4069   -4.1557    0.0000 O   0  0  0  0  0  0  0  0  0  0  0  0
   -3.9283    0.9047    0.0000 C   0  0  0  0  0  0  0  0  0  0  0  0
   -1.6585    2.2478    0.0000 C   0  0  0  0  0  0  0  0  0  0  0  0
   -2.4289    3.5598    0.0000 C   0  0  0  0  0  0  0  0  0  0  0  0
   -4.6884    2.2166    0.0000 C   0  0  0  0  0  0  0  0  0  0  0  0
   -3.9388    3.5390    0.0000 C   0  0  0  0  0  0  0  0  0  0  0  0
  2  1  1  0  0  0  0
  3  5  1  0  0  0  0
  4  6  1  0  0  0  0
  5  2  1  0  0  0  0
  6 13  1  0  0  0  0
  7  2  1  0  0  0  0
  8  1  2  0  0  0  0
  9  3  2  0  0  0  0
 10  4  2  0  0  0  0
 11  1  1  0  0  0  0
 12  3  1  0  0  0  0
 13 11  1  0  0  0  0
 14  4  1  0  0  0  0
 15  7  1  0  0  0  0
 16 12  1  0  0  0  0
 17 15  1  0  0  0  0
 18 15  2  0  0  0  0
 19 18  1  0  0  0  0
 20 17  2  0  0  0  0
 21 19  2  0  0  0  0
 20 21  1  0  0  0  0
M  END
> <Value>
6.173925197299173

> <Relation>
=

> <SourceURI>
mol:CHEMBL440104

$$$$

Generated by Molecular Materials Informatics

 27 28  0  0  0  0  0  0  0  0999 V2000
   -0.4542   -2.8480    0.0000 C   0  0  0  0  0  0  0  0  0  0  0  0
    0.8267   -2.0670    0.0000 N   0  0  0  0  0  0  0  0  0  0  0  0
    3.4194   -2.0046    0.0000 C   0  0  0  0  0  0  0  0  0  0  0  0
    2.1386   -2.7856    0.0000 C   0  0  0  0  0  0  0  0  0  0  0  0
   -1.7663   -2.1295    0.0000 C   0  0  0  0  0  0  0  0  0  0  0  0
    4.7316   -2.7230    0.0000 C   0  0  0  0  0  0  0  0  0  0  0  0
   -4.3696   -2.1921    0.0000 C   0  0  0  0  0  0  0  0  0  0  0  0
   -3.0471   -2.9105    0.0000 C   0  0  0  0  0  0  0  0  0  0  0  0
   -0.4229   -4.3475    0.0000 O   0  0  0  0  0  0  0  0  0  0  0  0
   -1.8079   -0.6301    0.0000 C   0  0  0  0  0  0  0  0  0  0  0  0
    4.7627   -4.2226    0.0000 O   0  0  0  0  0  0  0  0  0  0  0  0
   -4.4009   -0.6925    0.0000 O   0  0  0  0  0  0  0  0  0  0  0  0
    2.1699   -4.2850    0.0000 C   0  0  0  0  0  0  0  0  0  0  0  0
   -5.6399   -2.9523    0.0000 N   0  0  0  0  0  0  0  0  0  0  0  0
    6.0122   -1.9421    0.0000 O   0  0  0  0  0  0  0  0  0  0  0  0
   -2.5786    0.6715    0.0000 C   0  0  0  0  0  0  0  0  0  0  0  0
   -5.5776   -4.3892    0.0000 O   0  0  0  0  0  0  0  0  0  0  0  0
    0.8890   -5.0452    0.0000 C   0  0  0  0  0  0  0  0  0  0  0  0
    3.4820   -4.9829    0.0000 C   0  0  0  0  0  0  0  0  0  0  0  0
   -4.0780    0.6715    0.0000 C   0  0  0  0  0  0  0  0  0  0  0  0
   -1.8287    1.9941    0.0000 C   0  0  0  0  0  0  0  0  0  0  0  0
    3.5338   -6.4823    0.0000 C   0  0  0  0  0  0  0  0  0  0  0  0
    0.9203   -6.5448    0.0000 C   0  0  0  0  0  0  0  0  0  0  0  0
   -2.5786    3.3061    0.0000 C   0  0  0  0  0  0  0  0  0  0  0  0
   -4.8590    1.9629    0.0000 C   0  0  0  0  0  0  0  0  0  0  0  0
   -4.1092    3.2955    0.0000 C   0  0  0  0  0  0  0  0  0  0  0  0
    2.2532   -7.2633    0.0000 C   0  0  0  0  0  0  0  0  0  0  0  0
  2  1  1  0  0  0  0
  3  4  1  0  0  0  0
  4  2  1  0  0  0  0
  5  1  1  0  0  0  0
  6  3  1  0  0  0  0
  7  8  1  0  0  0  0
  8  5  1  0  0  0  0
  9  1  2  0  0  0  0
  5 10  1  6  0  0  0
 11  6  2  0  0  0  0
 12  7  2  0  0  0  0
  4 13  1  1  0  0  0
 14  7  1  0  0  0  0
 15  6  1  0  0  0  0
 16 10  1  0  0  0  0
 17 14  1  0  0  0  0
 18 13  2  0  0  0  0
 19 13  1  0  0  0  0
 20 16  1  0  0  0  0
 21 16  2  0  0  0  0
 22 19  2  0  0  0  0
 23 18  1  0  0  0  0
 24 21  1  0  0  0  0
 25 20  2  0  0  0  0
 26 24  2  0  0  0  0
 27 22  1  0  0  0  0
 25 26  1  0  0  0  0
 27 23  2  0  0  0  0
M  END
> <Value>
6.3979400086720375

> <Relation>
=

> <SourceURI>
mol:CHEMBL2115347

$$$$

Generated by Molecular Materials Informatics

 28 29  0  0  0  0  0  0  0  0999 V2000
    2.8649   -1.9414    0.0000 C   0  0  0  0  0  0  0  0  0  0  0  0
   -1.0092   -2.7849    0.0000 C   0  0  0  0  0  0  0  0  0  0  0  0
    4.1771   -2.6600    0.0000 C   0  0  0  0  0  0  0  0  0  0  0  0
   -2.3215   -2.0663    0.0000 C   0  0  0  0  0  0  0  0  0  0  0  0
    0.2717   -2.0039    0.0000 N   0  0  0  0  0  0  0  0  0  0  0  0
   -4.9354   -2.1288    0.0000 C   0  0  0  0  0  0  0  0  0  0  0  0
    1.5839   -2.7225    0.0000 C   0  0  0  0  0  0  0  0  0  0  0  0
   -3.6024   -2.8474    0.0000 C   0  0  0  0  0  0  0  0  0  0  0  0
    2.8337   -0.4417    0.0000 C   0  0  0  0  0  0  0  0  0  0  0  0
   -2.3735   -0.5667    0.0000 C   0  0  0  0  0  0  0  0  0  0  0  0
   -0.9780   -4.2846    0.0000 O   0  0  0  0  0  0  0  0  0  0  0  0
    4.2084   -4.1596    0.0000 O   0  0  0  0  0  0  0  0  0  0  0  0
   -4.9666   -0.6292    0.0000 O   0  0  0  0  0  0  0  0  0  0  0  0
   -6.1851   -2.9099    0.0000 N   0  0  0  0  0  0  0  0  0  0  0  0
    5.4581   -1.8789    0.0000 O   0  0  0  0  0  0  0  0  0  0  0  0
    3.5628    0.8498    0.0000 C   0  0  0  0  0  0  0  0  0  0  0  0
   -3.1233    0.7248    0.0000 C   0  0  0  0  0  0  0  0  0  0  0  0
   -6.1226   -4.3471    0.0000 O   0  0  0  0  0  0  0  0  0  0  0  0
   -2.3735    2.0578    0.0000 C   0  0  0  0  0  0  0  0  0  0  0  0
   -4.6335    0.7143    0.0000 C   0  0  0  0  0  0  0  0  0  0  0  0
    5.0624    0.8705    0.0000 C   0  0  0  0  0  0  0  0  0  0  0  0
    2.8024    2.1515    0.0000 C   0  0  0  0  0  0  0  0  0  0  0  0
   -5.4040    2.0265    0.0000 C   0  0  0  0  0  0  0  0  0  0  0  0
    5.7810    2.1827    0.0000 C   0  0  0  0  0  0  0  0  0  0  0  0
    3.5315    3.4430    0.0000 C   0  0  0  0  0  0  0  0  0  0  0  0
   -3.1338    3.3700    0.0000 C   0  0  0  0  0  0  0  0  0  0  0  0
   -4.6542    3.3492    0.0000 C   0  0  0  0  0  0  0  0  0  0  0  0
    5.0312    3.4637    0.0000 C   0  0  0  0  0  0  0  0  0  0  0  0
  2  5  1  0  0  0  0
  3  1  1  0  0  0  0
  4  2  1  0  0  0  0
  5  7  1  0  0  0  0
  6  8  1  0  0  0  0
  7  1  1  0  0  0  0
  8  4  1  0  0  0  0
  9  1  1  0  0  0  0
 10  4  1  0  0  0  0
 11  2  2  0  0  0  0
 12  3  2  0  0  0  0
 13  6  2  0  0  0  0
 14  6  1  0  0  0  0
 15  3  1  0  0  0  0
 16  9  1  0  0  0  0
 17 10  1  0  0  0  0
 18 14  1  0  0  0  0
 19 17  2  0  0  0  0
 20 17  1  0  0  0  0
 21 16  2  0  0  0  0
 22 16  1  0  0  0  0
 23 20  2  0  0  0  0
 24 21  1  0  0  0  0
 25 22  2  0  0  0  0
 26 19  1  0  0  0  0
 27 23  1  0  0  0  0
 28 25  1  0  0  0  0
 28 24  2  0  0  0  0
 27 26  2  0  0  0  0
M  END
> <Value>
7.14569395819892

> <Relation>
=

> <SourceURI>
mol:CHEMBL290337

$$$$

Generated by Molecular Materials Informatics

 28 29  0  0  0  0  0  0  0  0999 V2000
   -0.7238   -0.6353    0.0000 C   0  0  0  0  0  0  0  0  0  0  0  0
    0.5572    0.1458    0.0000 N   0  0  0  0  0  0  0  0  0  0  0  0
    1.8694   -0.5728    0.0000 C   0  0  0  0  0  0  0  0  0  0  0  0
   -2.0360    0.0833    0.0000 C   0  0  0  0  0  0  0  0  0  0  0  0
    3.1503    0.2082    0.0000 C   0  0  0  0  0  0  0  0  0  0  0  0
   -4.6397    0.0208    0.0000 C   0  0  0  0  0  0  0  0  0  0  0  0
   -3.3170   -0.6978    0.0000 C   0  0  0  0  0  0  0  0  0  0  0  0
   -0.6926   -2.1350    0.0000 O   0  0  0  0  0  0  0  0  0  0  0  0
    1.9006   -2.0725    0.0000 C   0  0  0  0  0  0  0  0  0  0  0  0
   -2.0778    1.5829    0.0000 C   0  0  0  0  0  0  0  0  0  0  0  0
    3.1191    1.7079    0.0000 O   0  0  0  0  0  0  0  0  0  0  0  0
   -4.6710    1.5205    0.0000 O   0  0  0  0  0  0  0  0  0  0  0  0
   -5.9102   -0.7603    0.0000 N   0  0  0  0  0  0  0  0  0  0  0  0
    4.4626   -0.5103    0.0000 O   0  0  0  0  0  0  0  0  0  0  0  0
    2.9629   -3.1348    0.0000 C   0  0  0  0  0  0  0  0  0  0  0  0
   -2.8484    2.8744    0.0000 C   0  0  0  0  0  0  0  0  0  0  0  0
    0.5154    1.6454    0.0000 C   0  0  0  0  0  0  0  0  0  0  0  0
   -5.8477   -2.1975    0.0000 O   0  0  0  0  0  0  0  0  0  0  0  0
   -4.3480    2.8639    0.0000 C   0  0  0  0  0  0  0  0  0  0  0  0
    2.5567   -4.5615    0.0000 C   0  0  0  0  0  0  0  0  0  0  0  0
    4.3688   -2.7286    0.0000 C   0  0  0  0  0  0  0  0  0  0  0  0
   -2.0985    4.2074    0.0000 C   0  0  0  0  0  0  0  0  0  0  0  0
    3.6190   -5.6030    0.0000 C   0  0  0  0  0  0  0  0  0  0  0  0
    5.4311   -3.7804    0.0000 C   0  0  0  0  0  0  0  0  0  0  0  0
   -2.8484    5.5196    0.0000 C   0  0  0  0  0  0  0  0  0  0  0  0
   -5.1291    4.1761    0.0000 C   0  0  0  0  0  0  0  0  0  0  0  0
    5.0457   -5.2176    0.0000 C   0  0  0  0  0  0  0  0  0  0  0  0
   -4.3793    5.4988    0.0000 C   0  0  0  0  0  0  0  0  0  0  0  0
  2  1  1  0  0  0  0
  3  2  1  0  0  0  0
  4  1  1  0  0  0  0
  5  3  1  0  0  0  0
  6  7  1  0  0  0  0
  7  4  1  0  0  0  0
  8  1  2  0  0  0  0
  9  3  1  0  0  0  0
 10  4  1  0  0  0  0
 11  5  2  0  0  0  0
 12  6  2  0  0  0  0
 13  6  1  0  0  0  0
 14  5  1  0  0  0  0
 15  9  1  0  0  0  0
 16 10  1  0  0  0  0
 17  2  1  0  0  0  0
 18 13  1  0  0  0  0
 19 16  1  0  0  0  0
 20 15  2  0  0  0  0
 21 15  1  0  0  0  0
 22 16  2  0  0  0  0
 23 20  1  0  0  0  0
 24 21  2  0  0  0  0
 25 22  1  0  0  0  0
 26 19  2  0  0  0  0
 27 24  1  0  0  0  0
 28 25  2  0  0  0  0
 26 28  1  0  0  0  0
 27 23  2  0  0  0  0
M  END
> <Value>
6.920818753952375

> <Relation>
=

> <SourceURI>
mol:CHEMBL290366

$$$$

Generated by Molecular Materials Informatics

 22 22  0  0  0  0  0  0  0  0999 V2000
   -0.9122   -2.5063    0.0000 C   0  0  0  0  0  0  0  0  0  0  0  0
    4.2730   -2.3814    0.0000 C   0  0  0  0  0  0  0  0  0  0  0  0
   -2.2242   -1.7879    0.0000 C   0  0  0  0  0  0  0  0  0  0  0  0
    2.9611   -1.6629    0.0000 C   0  0  0  0  0  0  0  0  0  0  0  0
    0.3684   -1.7254    0.0000 N   0  0  0  0  0  0  0  0  0  0  0  0
   -4.8375   -1.8504    0.0000 C   0  0  0  0  0  0  0  0  0  0  0  0
   -3.5049   -2.5688    0.0000 C   0  0  0  0  0  0  0  0  0  0  0  0
    1.6804   -2.4439    0.0000 C   0  0  0  0  0  0  0  0  0  0  0  0
   -2.2762   -0.2885    0.0000 C   0  0  0  0  0  0  0  0  0  0  0  0
   -0.8810   -4.0057    0.0000 O   0  0  0  0  0  0  0  0  0  0  0  0
    4.3042   -3.8807    0.0000 O   0  0  0  0  0  0  0  0  0  0  0  0
   -4.8688   -0.3510    0.0000 O   0  0  0  0  0  0  0  0  0  0  0  0
   -6.0870   -2.6313    0.0000 N   0  0  0  0  0  0  0  0  0  0  0  0
    5.5537   -1.6005    0.0000 O   0  0  0  0  0  0  0  0  0  0  0  0
   -3.0258    1.0026    0.0000 C   0  0  0  0  0  0  0  0  0  0  0  0
   -6.0245   -4.0682    0.0000 O   0  0  0  0  0  0  0  0  0  0  0  0
    2.9298   -0.1636    0.0000 C   0  0  0  0  0  0  0  0  0  0  0  0
   -4.5357    0.9922    0.0000 C   0  0  0  0  0  0  0  0  0  0  0  0
   -2.2762    2.3353    0.0000 C   0  0  0  0  0  0  0  0  0  0  0  0
   -3.0363    3.6473    0.0000 C   0  0  0  0  0  0  0  0  0  0  0  0
   -5.3061    2.3041    0.0000 C   0  0  0  0  0  0  0  0  0  0  0  0
   -4.5564    3.6265    0.0000 C   0  0  0  0  0  0  0  0  0  0  0  0
  2  4  1  0  0  0  0
  3  1  1  0  0  0  0
  4  8  1  0  0  0  0
  5  1  1  0  0  0  0
  6  7  1  0  0  0  0
  7  3  1  0  0  0  0
  8  5  1  0  0  0  0
  9  3  1  0  0  0  0
 10  1  2  0  0  0  0
 11  2  2  0  0  0  0
 12  6  2  0  0  0  0
 13  6  1  0  0  0  0
 14  2  1  0  0  0  0
 15  9  1  0  0  0  0
 16 13  1  0  0  0  0
 17  4  1  0  0  0  0
 18 15  1  0  0  0  0
 19 15  2  0  0  0  0
 20 19  1  0  0  0  0
 21 18  2  0  0  0  0
 22 20  2  0  0  0  0
 22 21  1  0  0  0  0
M  END
> <Value>
6.443697499232712

> <Relation>
=

> <SourceURI>
mol:CHEMBL37921

$$$$

Generated by Molecular Materials Informatics

 28 29  0  0  0  0  0  0  0  0999 V2000
   -0.4544   -2.6518    0.0000 C   0  0  0  0  0  0  0  0  0  0  0  0
    0.8268   -1.8707    0.0000 N   0  0  0  0  0  0  0  0  0  0  0  0
   -1.7666   -1.9332    0.0000 C   0  0  0  0  0  0  0  0  0  0  0  0
    3.4199   -1.8081    0.0000 C   0  0  0  0  0  0  0  0  0  0  0  0
    4.7321   -2.5267    0.0000 C   0  0  0  0  0  0  0  0  0  0  0  0
    2.1390   -2.5892    0.0000 C   0  0  0  0  0  0  0  0  0  0  0  0
   -4.3703   -1.9956    0.0000 C   0  0  0  0  0  0  0  0  0  0  0  0
   -3.0475   -2.7142    0.0000 C   0  0  0  0  0  0  0  0  0  0  0  0
   -0.4231   -4.1515    0.0000 O   0  0  0  0  0  0  0  0  0  0  0  0
   -1.8082   -0.4334    0.0000 C   0  0  0  0  0  0  0  0  0  0  0  0
    4.7634   -4.0266    0.0000 O   0  0  0  0  0  0  0  0  0  0  0  0
   -4.4016   -0.4959    0.0000 O   0  0  0  0  0  0  0  0  0  0  0  0
   -5.6409   -2.7560    0.0000 N   0  0  0  0  0  0  0  0  0  0  0  0
    2.1702   -4.0889    0.0000 C   0  0  0  0  0  0  0  0  0  0  0  0
    6.0133   -1.7456    0.0000 O   0  0  0  0  0  0  0  0  0  0  0  0
   -2.5790    0.8683    0.0000 C   0  0  0  0  0  0  0  0  0  0  0  0
    2.9201   -5.3804    0.0000 C   0  0  0  0  0  0  0  0  0  0  0  0
   -5.5783   -4.1933    0.0000 O   0  0  0  0  0  0  0  0  0  0  0  0
   -1.8289    2.1911    0.0000 C   0  0  0  0  0  0  0  0  0  0  0  0
   -4.0786    0.8683    0.0000 C   0  0  0  0  0  0  0  0  0  0  0  0
    2.1597   -6.6510    0.0000 C   0  0  0  0  0  0  0  0  0  0  0  0
    4.3885   -5.3804    0.0000 C   0  0  0  0  0  0  0  0  0  0  0  0
   -4.8597    2.1598    0.0000 C   0  0  0  0  0  0  0  0  0  0  0  0
    2.8888   -7.9425    0.0000 C   0  0  0  0  0  0  0  0  0  0  0  0
    5.1280   -6.6615    0.0000 C   0  0  0  0  0  0  0  0  0  0  0  0
   -2.5790    3.5033    0.0000 C   0  0  0  0  0  0  0  0  0  0  0  0
   -4.1099    3.4927    0.0000 C   0  0  0  0  0  0  0  0  0  0  0  0
    4.3779   -7.9425    0.0000 C   0  0  0  0  0  0  0  0  0  0  0  0
  2  1  1  0  0  0  0
  3  1  1  0  0  0  0
  4  6  1  0  0  0  0
  5  4  1  0  0  0  0
  6  2  1  0  0  0  0
  7  8  1  0  0  0  0
  8  3  1  0  0  0  0
  9  1  2  0  0  0  0
  3 10  1  6  0  0  0
 11  5  2  0  0  0  0
 12  7  2  0  0  0  0
 13  7  1  0  0  0  0
  6 14  1  6  0  0  0
 15  5  1  0  0  0  0
 16 10  1  0  0  0  0
 17 14  1  0  0  0  0
 18 13  1  0  0  0  0
 19 16  2  0  0  0  0
 20 16  1  0  0  0  0
 21 17  2  0  0  0  0
 22 17  1  0  0  0  0
 23 20  2  0  0  0  0
 24 21  1  0  0  0  0
 25 22  2  0  0  0  0
 26 19  1  0  0  0  0
 27 23  1  0  0  0  0
 28 25  1  0  0  0  0
 27 26  2  0  0  0  0
 28 24  2  0  0  0  0
M  END
> <Value>
5.844663962534939

> <Relation>
=

> <SourceURI>
mol:CHEMBL2115348

$$$$

Generated by Molecular Materials Informatics

 27 28  0  0  0  0  0  0  0  0999 V2000
    0.2137   -1.6760    0.0000 C   0  0  0  0  0  0  0  0  0  0  0  0
    1.4947   -0.8949    0.0000 N   0  0  0  0  0  0  0  0  0  0  0  0
    2.8069   -1.6135    0.0000 C   0  0  0  0  0  0  0  0  0  0  0  0
    4.0878   -0.8324    0.0000 C   0  0  0  0  0  0  0  0  0  0  0  0
   -1.0985   -0.9574    0.0000 C   0  0  0  0  0  0  0  0  0  0  0  0
   -3.7022   -1.0199    0.0000 C   0  0  0  0  0  0  0  0  0  0  0  0
   -2.3795   -1.7385    0.0000 C   0  0  0  0  0  0  0  0  0  0  0  0
    0.2449   -3.1756    0.0000 O   0  0  0  0  0  0  0  0  0  0  0  0
    2.8381   -3.1132    0.0000 C   0  0  0  0  0  0  0  0  0  0  0  0
   -1.1403    0.5423    0.0000 C   0  0  0  0  0  0  0  0  0  0  0  0
    4.0566    0.6673    0.0000 O   0  0  0  0  0  0  0  0  0  0  0  0
   -3.7335    0.4798    0.0000 O   0  0  0  0  0  0  0  0  0  0  0  0
   -4.9727   -1.7904    0.0000 N   0  0  0  0  0  0  0  0  0  0  0  0
    5.4001   -1.5510    0.0000 O   0  0  0  0  0  0  0  0  0  0  0  0
   -1.9109    1.8545    0.0000 C   0  0  0  0  0  0  0  0  0  0  0  0
    3.9004   -4.1649    0.0000 C   0  0  0  0  0  0  0  0  0  0  0  0
   -4.9102   -3.2276    0.0000 O   0  0  0  0  0  0  0  0  0  0  0  0
   -1.1610    3.1667    0.0000 C   0  0  0  0  0  0  0  0  0  0  0  0
   -3.4105    1.8338    0.0000 C   0  0  0  0  0  0  0  0  0  0  0  0
    3.4942   -5.5814    0.0000 C   0  0  0  0  0  0  0  0  0  0  0  0
    5.3063   -3.7693    0.0000 C   0  0  0  0  0  0  0  0  0  0  0  0
   -4.1916    3.1355    0.0000 C   0  0  0  0  0  0  0  0  0  0  0  0
    4.5565   -6.6331    0.0000 C   0  0  0  0  0  0  0  0  0  0  0  0
    6.3686   -4.8003    0.0000 C   0  0  0  0  0  0  0  0  0  0  0  0
   -1.9109    4.4789    0.0000 C   0  0  0  0  0  0  0  0  0  0  0  0
   -3.4418    4.4789    0.0000 C   0  0  0  0  0  0  0  0  0  0  0  0
    5.9832   -6.2375    0.0000 C   0  0  0  0  0  0  0  0  0  0  0  0
  2  1  1  0  0  0  0
  3  2  1  0  0  0  0
  4  3  1  0  0  0  0
  5  1  1  0  0  0  0
  6  7  1  0  0  0  0
  7  5  1  0  0  0  0
  8  1  2  0  0  0  0
  9  3  1  0  0  0  0
 10  5  1  0  0  0  0
 11  4  2  0  0  0  0
 12  6  2  0  0  0  0
 13  6  1  0  0  0  0
 14  4  1  0  0  0  0
 15 10  1  0  0  0  0
 16  9  1  0  0  0  0
 17 13  1  0  0  0  0
 18 15  2  0  0  0  0
 19 15  1  0  0  0  0
 20 16  2  0  0  0  0
 21 16  1  0  0  0  0
 22 19  2  0  0  0  0
 23 20  1  0  0  0  0
 24 21  2  0  0  0  0
 25 18  1  0  0  0  0
 26 22  1  0  0  0  0
 27 24  1  0  0  0  0
 26 25  2  0  0  0  0
 27 23  2  0  0  0  0
M  END
> <Value>
6.886056647693163

> <Relation>
=

> <SourceURI>
mol:CHEMBL37418

$$$$

Generated by Molecular Materials Informatics

 23 23  0  0  0  0  0  0  0  0999 V2000
   -0.6575   -2.2345    0.0000 C   0  0  0  0  0  0  0  0  0  0  0  0
   -1.9694   -1.5160    0.0000 C   0  0  0  0  0  0  0  0  0  0  0  0
   -4.5725   -1.5785    0.0000 C   0  0  0  0  0  0  0  0  0  0  0  0
   -3.2501   -2.2969    0.0000 C   0  0  0  0  0  0  0  0  0  0  0  0
    7.1204   -2.0471    0.0000 C   0  0  0  0  0  0  0  0  0  0  0  0
   -2.0111   -0.0167    0.0000 C   0  0  0  0  0  0  0  0  0  0  0  0
   -0.6262   -3.7338    0.0000 O   0  0  0  0  0  0  0  0  0  0  0  0
   -4.6037   -0.0792    0.0000 O   0  0  0  0  0  0  0  0  0  0  0  0
    7.1517   -3.5464    0.0000 O   0  0  0  0  0  0  0  0  0  0  0  0
    0.6232   -1.4536    0.0000 N   0  0  0  0  0  0  0  0  0  0  0  0
   -5.8427   -2.3489    0.0000 N   0  0  0  0  0  0  0  0  0  0  0  0
    8.4011   -1.2661    0.0000 O   0  0  0  0  0  0  0  0  0  0  0  0
   -2.7815    1.2952    0.0000 C   0  0  0  0  0  0  0  0  0  0  0  0
   -5.7802   -3.7858    0.0000 O   0  0  0  0  0  0  0  0  0  0  0  0
    5.8085   -1.3286    0.0000 C   0  0  0  0  0  0  0  0  0  0  0  0
    1.9352   -2.1720    0.0000 C   0  0  0  0  0  0  0  0  0  0  0  0
   -4.2809    1.2745    0.0000 C   0  0  0  0  0  0  0  0  0  0  0  0
   -2.0319    2.6072    0.0000 C   0  0  0  0  0  0  0  0  0  0  0  0
    4.5278   -2.1095    0.0000 C   0  0  0  0  0  0  0  0  0  0  0  0
    3.2159   -1.3911    0.0000 C   0  0  0  0  0  0  0  0  0  0  0  0
   -2.7815    3.9191    0.0000 C   0  0  0  0  0  0  0  0  0  0  0  0
   -5.0618    2.5759    0.0000 C   0  0  0  0  0  0  0  0  0  0  0  0
   -4.3121    3.9191    0.0000 C   0  0  0  0  0  0  0  0  0  0  0  0
  2  1  1  0  0  0  0
  3  4  1  0  0  0  0
  4  2  1  0  0  0  0
  5 15  1  0  0  0  0
  6  2  1  0  0  0  0
  7  1  2  0  0  0  0
  8  3  2  0  0  0  0
  9  5  2  0  0  0  0
 10  1  1  0  0  0  0
 11  3  1  0  0  0  0
 12  5  1  0  0  0  0
 13  6  1  0  0  0  0
 14 11  1  0  0  0  0
 15 19  1  0  0  0  0
 16 10  1  0  0  0  0
 17 13  1  0  0  0  0
 18 13  2  0  0  0  0
 19 20  1  0  0  0  0
 20 16  1  0  0  0  0
 21 18  1  0  0  0  0
 22 17  2  0  0  0  0
 23 21  2  0  0  0  0
 23 22  1  0  0  0  0
M  END
> <Value>
6.301029995663981

> <Relation>
=

> <SourceURI>
mol:CHEMBL36841

$$$$

Generated by Molecular Materials Informatics

 28 29  0  0  0  0  0  0  0  0999 V2000
   -0.4544   -2.6518    0.0000 C   0  0  0  0  0  0  0  0  0  0  0  0
    0.8268   -1.8707    0.0000 N   0  0  0  0  0  0  0  0  0  0  0  0
   -1.7666   -1.9332    0.0000 C   0  0  0  0  0  0  0  0  0  0  0  0
    3.4199   -1.8081    0.0000 C   0  0  0  0  0  0  0  0  0  0  0  0
    4.7321   -2.5267    0.0000 C   0  0  0  0  0  0  0  0  0  0  0  0
    2.1390   -2.5892    0.0000 C   0  0  0  0  0  0  0  0  0  0  0  0
   -4.3703   -1.9956    0.0000 C   0  0  0  0  0  0  0  0  0  0  0  0
   -3.0475   -2.7142    0.0000 C   0  0  0  0  0  0  0  0  0  0  0  0
   -0.4231   -4.1515    0.0000 O   0  0  0  0  0  0  0  0  0  0  0  0
   -1.8082   -0.4334    0.0000 C   0  0  0  0  0  0  0  0  0  0  0  0
    4.7634   -4.0266    0.0000 O   0  0  0  0  0  0  0  0  0  0  0  0
   -4.4016   -0.4959    0.0000 O   0  0  0  0  0  0  0  0  0  0  0  0
   -5.6409   -2.7560    0.0000 N   0  0  0  0  0  0  0  0  0  0  0  0
    2.1702   -4.0889    0.0000 C   0  0  0  0  0  0  0  0  0  0  0  0
    6.0133   -1.7456    0.0000 O   0  0  0  0  0  0  0  0  0  0  0  0
   -2.5790    0.8683    0.0000 C   0  0  0  0  0  0  0  0  0  0  0  0
    2.9201   -5.3804    0.0000 C   0  0  0  0  0  0  0  0  0  0  0  0
   -5.5783   -4.1933    0.0000 O   0  0  0  0  0  0  0  0  0  0  0  0
   -1.8289    2.1911    0.0000 C   0  0  0  0  0  0  0  0  0  0  0  0
   -4.0786    0.8683    0.0000 C   0  0  0  0  0  0  0  0  0  0  0  0
    2.1597   -6.6510    0.0000 C   0  0  0  0  0  0  0  0  0  0  0  0
    4.3885   -5.3804    0.0000 C   0  0  0  0  0  0  0  0  0  0  0  0
   -4.8597    2.1598    0.0000 C   0  0  0  0  0  0  0  0  0  0  0  0
    2.8888   -7.9425    0.0000 C   0  0  0  0  0  0  0  0  0  0  0  0
    5.1280   -6.6615    0.0000 C   0  0  0  0  0  0  0  0  0  0  0  0
   -2.5790    3.5033    0.0000 C   0  0  0  0  0  0  0  0  0  0  0  0
   -4.1099    3.4927    0.0000 C   0  0  0  0  0  0  0  0  0  0  0  0
    4.3779   -7.9425    0.0000 C   0  0  0  0  0  0  0  0  0  0  0  0
  2  1  1  0  0  0  0
  3  1  1  0  0  0  0
  4  6  1  0  0  0  0
  5  4  1  0  0  0  0
  6  2  1  0  0  0  0
  7  8  1  0  0  0  0
  8  3  1  0  0  0  0
  9  1  2  0  0  0  0
  3 10  1  1  0  0  0
 11  5  2  0  0  0  0
 12  7  2  0  0  0  0
 13  7  1  0  0  0  0
  6 14  1  6  0  0  0
 15  5  1  0  0  0  0
 16 10  1  0  0  0  0
 17 14  1  0  0  0  0
 18 13  1  0  0  0  0
 19 16  2  0  0  0  0
 20 16  1  0  0  0  0
 21 17  2  0  0  0  0
 22 17  1  0  0  0  0
 23 20  2  0  0  0  0
 24 21  1  0  0  0  0
 25 22  2  0  0  0  0
 26 19  1  0  0  0  0
 27 23  1  0  0  0  0
 28 25  1  0  0  0  0
 27 26  2  0  0  0  0
 28 24  2  0  0  0  0
M  END
> <Value>
7.647817481888637

> <Relation>
=

> <SourceURI>
mol:CHEMBL2114408

$$$$

Generated by Molecular Materials Informatics

 27 28  0  0  0  0  0  0  0  0999 V2000
   -0.4542   -2.8480    0.0000 C   0  0  0  0  0  0  0  0  0  0  0  0
    0.8267   -2.0670    0.0000 N   0  0  0  0  0  0  0  0  0  0  0  0
    3.4194   -2.0046    0.0000 C   0  0  0  0  0  0  0  0  0  0  0  0
    2.1386   -2.7856    0.0000 C   0  0  0  0  0  0  0  0  0  0  0  0
   -1.7663   -2.1295    0.0000 C   0  0  0  0  0  0  0  0  0  0  0  0
    4.7316   -2.7230    0.0000 C   0  0  0  0  0  0  0  0  0  0  0  0
   -4.3696   -2.1921    0.0000 C   0  0  0  0  0  0  0  0  0  0  0  0
   -3.0471   -2.9105    0.0000 C   0  0  0  0  0  0  0  0  0  0  0  0
   -0.4229   -4.3475    0.0000 O   0  0  0  0  0  0  0  0  0  0  0  0
   -1.8079   -0.6301    0.0000 C   0  0  0  0  0  0  0  0  0  0  0  0
    4.7627   -4.2226    0.0000 O   0  0  0  0  0  0  0  0  0  0  0  0
   -4.4009   -0.6925    0.0000 O   0  0  0  0  0  0  0  0  0  0  0  0
    2.1699   -4.2850    0.0000 C   0  0  0  0  0  0  0  0  0  0  0  0
   -5.6399   -2.9523    0.0000 N   0  0  0  0  0  0  0  0  0  0  0  0
    6.0122   -1.9421    0.0000 O   0  0  0  0  0  0  0  0  0  0  0  0
   -2.5786    0.6715    0.0000 C   0  0  0  0  0  0  0  0  0  0  0  0
   -5.5776   -4.3892    0.0000 O   0  0  0  0  0  0  0  0  0  0  0  0
    0.8890   -5.0452    0.0000 C   0  0  0  0  0  0  0  0  0  0  0  0
    3.4820   -4.9829    0.0000 C   0  0  0  0  0  0  0  0  0  0  0  0
   -4.0780    0.6715    0.0000 C   0  0  0  0  0  0  0  0  0  0  0  0
   -1.8287    1.9941    0.0000 C   0  0  0  0  0  0  0  0  0  0  0  0
    3.5338   -6.4823    0.0000 C   0  0  0  0  0  0  0  0  0  0  0  0
    0.9203   -6.5448    0.0000 C   0  0  0  0  0  0  0  0  0  0  0  0
   -2.5786    3.3061    0.0000 C   0  0  0  0  0  0  0  0  0  0  0  0
   -4.8590    1.9629    0.0000 C   0  0  0  0  0  0  0  0  0  0  0  0
   -4.1092    3.2955    0.0000 C   0  0  0  0  0  0  0  0  0  0  0  0
    2.2532   -7.2633    0.0000 C   0  0  0  0  0  0  0  0  0  0  0  0
  2  1  1  0  0  0  0
  3  4  1  0  0  0  0
  4  2  1  0  0  0  0
  5  1  1  0  0  0  0
  6  3  1  0  0  0  0
  7  8  1  0  0  0  0
  8  5  1  0  0  0  0
  9  1  2  0  0  0  0
  5 10  1  1  0  0  0
 11  6  2  0  0  0  0
 12  7  2  0  0  0  0
  4 13  1  1  0  0  0
 14  7  1  0  0  0  0
 15  6  1  0  0  0  0
 16 10  1  0  0  0  0
 17 14  1  0  0  0  0
 18 13  2  0  0  0  0
 19 13  1  0  0  0  0
 20 16  1  0  0  0  0
 21 16  2  0  0  0  0
 22 19  2  0  0  0  0
 23 18  1  0  0  0  0
 24 21  1  0  0  0  0
 25 20  2  0  0  0  0
 26 24  2  0  0  0  0
 27 22  1  0  0  0  0
 25 26  1  0  0  0  0
 27 23  2  0  0  0  0
M  END
> <Value>
7.488116639021126

> <Relation>
=

> <SourceURI>
mol:CHEMBL2114407

$$$$

Generated by Molecular Materials Informatics

 26 26  0  0  0  0  0  0  0  0999 V2000
   16.2625  -21.1401    0.0000 C   0  0  0  0  0  0  0  0  0  0  0  0
   17.5616  -20.3901    0.0000 C   0  0  0  0  0  0  0  0  0  0  0  0
   14.9635  -20.3901    0.0000 C   0  0  0  0  0  0  0  0  0  0  0  0
   16.2625  -22.6400    0.0000 N   0  0  0  0  0  0  0  0  0  0  0  0
   13.6646  -21.1401    0.0000 C   0  0  0  0  0  0  0  0  0  0  0  0
   12.3656  -20.3901    0.0000 C   0  0  0  0  0  0  0  0  0  0  0  0
   11.0665  -21.1401    0.0000 N   0  0  0  0  0  0  0  0  0  0  0  0
   14.9635  -23.3900    0.0000 C   0  0  0  0  0  0  0  0  0  0  0  0
   14.9635  -24.8899    0.0000 C   0  0  0  0  0  0  0  0  0  0  0  0
   13.6646  -22.6400    0.0000 O   0  0  0  0  0  0  0  0  0  0  0  0
    9.7675  -20.3901    0.0000 C   0  0  0  0  0  0  0  0  0  0  0  0
    8.4686  -21.1401    0.0000 N   0  0  0  0  0  0  0  0  0  0  0  0
    9.7675  -18.8901    0.0000 N   0  0  0  0  0  0  0  0  0  0  0  0
    7.1695  -20.3901    0.0000 N   0  3  0  0  0  0  0  0  0  0  0  0
    5.8614  -21.1357    0.0000 O   0  0  0  0  0  0  0  0  0  0  0  0
    7.1604  -18.8858    0.0000 O   0  5  0  0  0  0  0  0  0  0  0  0
   18.8664  -21.1386    0.0000 N   0  0  0  0  0  0  0  0  0  0  0  0
   17.5674  -18.8887    0.0000 O   0  0  0  0  0  0  0  0  0  0  0  0
   20.1633  -20.3848    0.0000 O   0  0  0  0  0  0  0  0  0  0  0  0
   13.6582  -25.6330    0.0000 C   0  0  0  0  0  0  0  0  0  0  0  0
   13.6577  -27.1317    0.0000 C   0  0  0  0  0  0  0  0  0  0  0  0
   14.9577  -27.8831    0.0000 C   0  0  0  0  0  0  0  0  0  0  0  0
   16.2609  -27.1252    0.0000 C   0  0  0  0  0  0  0  0  0  0  0  0
   16.2552  -25.6290    0.0000 C   0  0  0  0  0  0  0  0  0  0  0  0
   17.5512  -24.8739    0.0000 O   0  0  0  0  0  0  0  0  0  0  0  0
   18.8532  -25.6190    0.0000 C   0  0  0  0  0  0  0  0  0  0  0  0
  6  7  1  0  0  0  0
 12 14  1  0  0  0  0
  1  4  1  0  0  0  0
  4  8  1  0  0  0  0
 14 15  2  0  0  0  0
 14 16  1  0  0  0  0
  8  9  1  0  0  0  0
  2 17  1  0  0  0  0
  2 18  2  0  0  0  0
  3  5  1  0  0  0  0
 17 19  1  0  0  0  0
  8 10  2  0  0  0  0
  9 20  2  0  0  0  0
  1  3  1  1  0  0  0
 20 21  1  0  0  0  0
  7 11  1  0  0  0  0
 21 22  2  0  0  0  0
  5  6  1  0  0  0  0
 22 23  1  0  0  0  0
 11 12  1  0  0  0  0
 23 24  2  0  0  0  0
 24  9  1  0  0  0  0
  1  2  1  0  0  0  0
 24 25  1  0  0  0  0
 11 13  2  0  0  0  0
 25 26  1  0  0  0  0
M  CHG  2  14   1  16  -1
M  END
> <Value>
4.105683937315561

> <Relation>
=

> <SourceURI>
mol:CHEMBL576973

$$$$

Generated by Molecular Materials Informatics

 25 25  0  0  0  0  0  0  0  0999 V2000
    3.4000    1.9142    0.0000 C   0  0  0  0  0  0  0  0  0  0  0  0
    4.6991    2.6642    0.0000 C   0  0  0  0  0  0  0  0  0  0  0  0
    2.1010    2.6642    0.0000 C   0  0  0  0  0  0  0  0  0  0  0  0
    3.4000    0.4142    0.0000 N   0  0  0  0  0  0  0  0  0  0  0  0
    0.8021    1.9142    0.0000 C   0  0  0  0  0  0  0  0  0  0  0  0
   -0.4969    2.6642    0.0000 C   0  0  0  0  0  0  0  0  0  0  0  0
   -1.7960    1.9142    0.0000 N   0  0  0  0  0  0  0  0  0  0  0  0
    2.1010   -0.3358    0.0000 C   0  0  0  0  0  0  0  0  0  0  0  0
    2.1010   -1.8357    0.0000 C   0  0  0  0  0  0  0  0  0  0  0  0
    0.8021    0.4142    0.0000 O   0  0  0  0  0  0  0  0  0  0  0  0
   -3.0951    2.6642    0.0000 C   0  0  0  0  0  0  0  0  0  0  0  0
   -4.3939    1.9142    0.0000 N   0  0  0  0  0  0  0  0  0  0  0  0
   -3.0951    4.1641    0.0000 N   0  0  0  0  0  0  0  0  0  0  0  0
   -5.6930    2.6642    0.0000 N   0  3  0  0  0  0  0  0  0  0  0  0
   -7.0011    1.9184    0.0000 O   0  0  0  0  0  0  0  0  0  0  0  0
   -5.7021    4.1683    0.0000 O   0  5  0  0  0  0  0  0  0  0  0  0
    6.0039    1.9156    0.0000 N   0  0  0  0  0  0  0  0  0  0  0  0
    4.7049    4.1656    0.0000 O   0  0  0  0  0  0  0  0  0  0  0  0
    7.3008    2.6692    0.0000 O   0  0  0  0  0  0  0  0  0  0  0  0
    0.7957   -2.5790    0.0000 C   0  0  0  0  0  0  0  0  0  0  0  0
    0.7952   -4.0775    0.0000 C   0  0  0  0  0  0  0  0  0  0  0  0
    2.0952   -4.8289    0.0000 C   0  0  0  0  0  0  0  0  0  0  0  0
    3.3984   -4.0709    0.0000 C   0  0  0  0  0  0  0  0  0  0  0  0
    3.3928   -2.5748    0.0000 C   0  0  0  0  0  0  0  0  0  0  0  0
   -0.5042   -4.8269    0.0000 Cl  0  0  0  0  0  0  0  0  0  0  0  0
 11 13  2  0  0  0  0
  6  7  1  0  0  0  0
 12 14  1  0  0  0  0
  1  4  1  0  0  0  0
  4  8  1  0  0  0  0
 14 15  2  0  0  0  0
 14 16  1  0  0  0  0
  8  9  1  0  0  0  0
  2 17  1  0  0  0  0
  2 18  2  0  0  0  0
  3  5  1  0  0  0  0
 17 19  1  0  0  0  0
  8 10  2  0  0  0  0
  9 20  2  0  0  0  0
  1  3  1  1  0  0  0
 20 21  1  0  0  0  0
  7 11  1  0  0  0  0
 21 22  2  0  0  0  0
  5  6  1  0  0  0  0
 22 23  1  0  0  0  0
 11 12  1  0  0  0  0
 23 24  2  0  0  0  0
 24  9  1  0  0  0  0
  1  2  1  0  0  0  0
 21 25  1  0  0  0  0
M  CHG  2  14   1  16  -1
M  END
> <Value>
3.6942188487450176

> <Relation>
=

> <SourceURI>
mol:CHEMBL575431

$$$$

Generated by Molecular Materials Informatics

 27 27  0  0  0  0  0  0  0  0999 V2000
   16.1333    2.1274    0.0000 C   0  0  0  0  0  0  0  0  0  0  0  0
   17.4324    2.8774    0.0000 C   0  0  0  0  0  0  0  0  0  0  0  0
   14.8345    2.8774    0.0000 C   0  0  0  0  0  0  0  0  0  0  0  0
   16.1333    0.6274    0.0000 N   0  0  0  0  0  0  0  0  0  0  0  0
   13.5354    2.1274    0.0000 C   0  0  0  0  0  0  0  0  0  0  0  0
   12.2364    2.8774    0.0000 C   0  0  0  0  0  0  0  0  0  0  0  0
   10.9373    2.1274    0.0000 N   0  0  0  0  0  0  0  0  0  0  0  0
   14.8345   -0.1225    0.0000 C   0  0  0  0  0  0  0  0  0  0  0  0
   14.8345   -1.6225    0.0000 C   0  0  0  0  0  0  0  0  0  0  0  0
   13.5354    0.6274    0.0000 O   0  0  0  0  0  0  0  0  0  0  0  0
    9.6384    2.8774    0.0000 C   0  0  0  0  0  0  0  0  0  0  0  0
    8.3394    2.1274    0.0000 N   0  0  0  0  0  0  0  0  0  0  0  0
    9.6384    4.3773    0.0000 N   0  0  0  0  0  0  0  0  0  0  0  0
    7.0403    2.8774    0.0000 N   0  3  0  0  0  0  0  0  0  0  0  0
    5.7322    2.1316    0.0000 O   0  0  0  0  0  0  0  0  0  0  0  0
    7.0312    4.3815    0.0000 O   0  5  0  0  0  0  0  0  0  0  0  0
   18.7372    2.1288    0.0000 N   0  0  0  0  0  0  0  0  0  0  0  0
   17.4384    4.3788    0.0000 O   0  0  0  0  0  0  0  0  0  0  0  0
   20.0341    2.8825    0.0000 O   0  0  0  0  0  0  0  0  0  0  0  0
   13.5292   -2.3657    0.0000 C   0  0  0  0  0  0  0  0  0  0  0  0
   13.5285   -3.8642    0.0000 C   0  0  0  0  0  0  0  0  0  0  0  0
   14.8285   -4.6157    0.0000 C   0  0  0  0  0  0  0  0  0  0  0  0
   16.1319   -3.8577    0.0000 C   0  0  0  0  0  0  0  0  0  0  0  0
   16.1261   -2.3616    0.0000 C   0  0  0  0  0  0  0  0  0  0  0  0
   12.2224   -4.6188    0.0000 N   0  3  0  0  0  0  0  0  0  0  0  0
   12.2216   -6.1189    0.0000 O   0  0  0  0  0  0  0  0  0  0  0  0
   10.9237   -3.8682    0.0000 O   0  5  0  0  0  0  0  0  0  0  0  0
 12 14  1  0  0  0  0
  1  4  1  0  0  0  0
  4  8  1  0  0  0  0
 14 15  2  0  0  0  0
 14 16  1  0  0  0  0
  8  9  1  0  0  0  0
  2 17  1  0  0  0  0
  2 18  2  0  0  0  0
  3  5  1  0  0  0  0
 17 19  1  0  0  0  0
  8 10  2  0  0  0  0
  9 20  2  0  0  0  0
  1  3  1  1  0  0  0
 20 21  1  0  0  0  0
  7 11  1  0  0  0  0
 21 22  2  0  0  0  0
  5  6  1  0  0  0  0
 22 23  1  0  0  0  0
 11 12  1  0  0  0  0
 23 24  2  0  0  0  0
 24  9  1  0  0  0  0
  1  2  1  0  0  0  0
 11 13  2  0  0  0  0
  6  7  1  0  0  0  0
 25 26  2  0  0  0  0
 25 27  1  0  0  0  0
 21 25  1  0  0  0  0
M  CHG  4  14   1  16  -1  25   1  27  -1
M  END
> <Value>
4.36251027048749

> <Relation>
=

> <SourceURI>
mol:CHEMBL584601

$$$$

Generated by Molecular Materials Informatics

 25 25  0  0  0  0  0  0  0  0999 V2000
    3.0542   -5.3276    0.0000 C   0  0  0  0  0  0  0  0  0  0  0  0
    4.3531   -4.5776    0.0000 C   0  0  0  0  0  0  0  0  0  0  0  0
    1.7552   -4.5776    0.0000 C   0  0  0  0  0  0  0  0  0  0  0  0
    3.0542   -6.8275    0.0000 N   0  0  0  0  0  0  0  0  0  0  0  0
    0.4561   -5.3276    0.0000 C   0  0  0  0  0  0  0  0  0  0  0  0
   -0.8427   -4.5776    0.0000 C   0  0  0  0  0  0  0  0  0  0  0  0
   -2.1418   -5.3276    0.0000 N   0  0  0  0  0  0  0  0  0  0  0  0
    1.7552   -7.5775    0.0000 C   0  0  0  0  0  0  0  0  0  0  0  0
    1.7552   -9.0774    0.0000 C   0  0  0  0  0  0  0  0  0  0  0  0
    0.4561   -6.8275    0.0000 O   0  0  0  0  0  0  0  0  0  0  0  0
   -3.4409   -4.5776    0.0000 C   0  0  0  0  0  0  0  0  0  0  0  0
   -4.7399   -5.3276    0.0000 N   0  0  0  0  0  0  0  0  0  0  0  0
   -3.4409   -3.0776    0.0000 N   0  0  0  0  0  0  0  0  0  0  0  0
   -6.0388   -4.5776    0.0000 N   0  3  0  0  0  0  0  0  0  0  0  0
   -7.3469   -5.3232    0.0000 O   0  0  0  0  0  0  0  0  0  0  0  0
   -6.0480   -3.0733    0.0000 O   0  5  0  0  0  0  0  0  0  0  0  0
    5.6581   -5.3261    0.0000 N   0  0  0  0  0  0  0  0  0  0  0  0
    4.3591   -3.0762    0.0000 O   0  0  0  0  0  0  0  0  0  0  0  0
    6.9550   -4.5723    0.0000 O   0  0  0  0  0  0  0  0  0  0  0  0
    0.4499   -9.8205    0.0000 C   0  0  0  0  0  0  0  0  0  0  0  0
    0.4494  -11.3192    0.0000 C   0  0  0  0  0  0  0  0  0  0  0  0
    1.7494  -12.0706    0.0000 C   0  0  0  0  0  0  0  0  0  0  0  0
    3.0526  -11.3127    0.0000 C   0  0  0  0  0  0  0  0  0  0  0  0
    3.0468   -9.8165    0.0000 C   0  0  0  0  0  0  0  0  0  0  0  0
   -0.8500  -12.0684    0.0000 C   0  0  0  0  0  0  0  0  0  0  0  0
 11 13  2  0  0  0  0
  6  7  1  0  0  0  0
 12 14  1  0  0  0  0
  1  4  1  0  0  0  0
  4  8  1  0  0  0  0
 14 15  2  0  0  0  0
 14 16  1  0  0  0  0
  8  9  1  0  0  0  0
  2 17  1  0  0  0  0
  2 18  2  0  0  0  0
  3  5  1  0  0  0  0
 17 19  1  0  0  0  0
  8 10  2  0  0  0  0
  9 20  2  0  0  0  0
  1  3  1  1  0  0  0
 20 21  1  0  0  0  0
  7 11  1  0  0  0  0
 21 22  2  0  0  0  0
  5  6  1  0  0  0  0
 22 23  1  0  0  0  0
 11 12  1  0  0  0  0
 23 24  2  0  0  0  0
 24  9  1  0  0  0  0
  1  2  1  0  0  0  0
 21 25  1  0  0  0  0
M  CHG  2  14   1  16  -1
M  END
> <Value>
4.368556230986828

> <Relation>
=

> <SourceURI>
mol:CHEMBL573304

$$$$

Generated by Molecular Materials Informatics

 26 26  0  0  0  0  0  0  0  0999 V2000
   15.7875   -5.4526    0.0000 C   0  0  0  0  0  0  0  0  0  0  0  0
   17.0866   -4.7026    0.0000 C   0  0  0  0  0  0  0  0  0  0  0  0
   14.4885   -4.7026    0.0000 C   0  0  0  0  0  0  0  0  0  0  0  0
   15.7875   -6.9525    0.0000 N   0  0  0  0  0  0  0  0  0  0  0  0
   13.1896   -5.4526    0.0000 C   0  0  0  0  0  0  0  0  0  0  0  0
   11.8905   -4.7026    0.0000 C   0  0  0  0  0  0  0  0  0  0  0  0
   10.5915   -5.4526    0.0000 N   0  0  0  0  0  0  0  0  0  0  0  0
   14.4885   -7.7025    0.0000 C   0  0  0  0  0  0  0  0  0  0  0  0
   14.4885   -9.2024    0.0000 C   0  0  0  0  0  0  0  0  0  0  0  0
   13.1896   -6.9525    0.0000 O   0  0  0  0  0  0  0  0  0  0  0  0
    9.2924   -4.7026    0.0000 C   0  0  0  0  0  0  0  0  0  0  0  0
    7.9936   -5.4526    0.0000 N   0  0  0  0  0  0  0  0  0  0  0  0
    9.2924   -3.2026    0.0000 N   0  0  0  0  0  0  0  0  0  0  0  0
    6.6945   -4.7026    0.0000 N   0  3  0  0  0  0  0  0  0  0  0  0
    5.3864   -5.4482    0.0000 O   0  0  0  0  0  0  0  0  0  0  0  0
    6.6854   -3.1983    0.0000 O   0  5  0  0  0  0  0  0  0  0  0  0
   18.3914   -5.4511    0.0000 N   0  0  0  0  0  0  0  0  0  0  0  0
   17.0924   -3.2012    0.0000 O   0  0  0  0  0  0  0  0  0  0  0  0
   19.6883   -4.6973    0.0000 O   0  0  0  0  0  0  0  0  0  0  0  0
   13.1832   -9.9455    0.0000 C   0  0  0  0  0  0  0  0  0  0  0  0
   13.1827  -11.4442    0.0000 C   0  0  0  0  0  0  0  0  0  0  0  0
   14.4827  -12.1956    0.0000 C   0  0  0  0  0  0  0  0  0  0  0  0
   15.7859  -11.4377    0.0000 C   0  0  0  0  0  0  0  0  0  0  0  0
   15.7803   -9.9415    0.0000 C   0  0  0  0  0  0  0  0  0  0  0  0
   11.8833  -12.1935    0.0000 O   0  0  0  0  0  0  0  0  0  0  0  0
   10.5846  -11.4429    0.0000 C   0  0  0  0  0  0  0  0  0  0  0  0
  6  7  1  0  0  0  0
 12 14  1  0  0  0  0
  1  4  1  0  0  0  0
  4  8  1  0  0  0  0
 14 15  2  0  0  0  0
 14 16  1  0  0  0  0
  8  9  1  0  0  0  0
  2 17  1  0  0  0  0
  2 18  2  0  0  0  0
  3  5  1  0  0  0  0
 17 19  1  0  0  0  0
  8 10  2  0  0  0  0
  9 20  2  0  0  0  0
  1  3  1  1  0  0  0
 20 21  1  0  0  0  0
  7 11  1  0  0  0  0
 21 22  2  0  0  0  0
  5  6  1  0  0  0  0
 22 23  1  0  0  0  0
 11 12  1  0  0  0  0
 23 24  2  0  0  0  0
 24  9  1  0  0  0  0
  1  2  1  0  0  0  0
 21 25  1  0  0  0  0
 11 13  2  0  0  0  0
 25 26  1  0  0  0  0
M  CHG  2  14   1  16  -1
M  END
> <Value>
4.782516055786093

> <Relation>
=

> <SourceURI>
mol:CHEMBL576974

$$$$

Generated by Molecular Materials Informatics

 25 25  0  0  0  0  0  0  0  0999 V2000
    3.0000  -11.8818    0.0000 C   0  0  0  0  0  0  0  0  0  0  0  0
    4.2991  -11.1318    0.0000 C   0  0  0  0  0  0  0  0  0  0  0  0
    1.7010  -11.1318    0.0000 C   0  0  0  0  0  0  0  0  0  0  0  0
    3.0000  -13.3817    0.0000 N   0  0  0  0  0  0  0  0  0  0  0  0
    0.4021  -11.8818    0.0000 C   0  0  0  0  0  0  0  0  0  0  0  0
   -0.8969  -11.1318    0.0000 C   0  0  0  0  0  0  0  0  0  0  0  0
   -2.1960  -11.8818    0.0000 N   0  0  0  0  0  0  0  0  0  0  0  0
    1.7010  -14.1317    0.0000 C   0  0  0  0  0  0  0  0  0  0  0  0
    1.7010  -15.6317    0.0000 C   0  0  0  0  0  0  0  0  0  0  0  0
    0.4021  -13.3817    0.0000 O   0  0  0  0  0  0  0  0  0  0  0  0
   -3.4951  -11.1318    0.0000 C   0  0  0  0  0  0  0  0  0  0  0  0
   -4.7939  -11.8818    0.0000 N   0  0  0  0  0  0  0  0  0  0  0  0
   -3.4951   -9.6319    0.0000 N   0  0  0  0  0  0  0  0  0  0  0  0
   -6.0930  -11.1318    0.0000 N   0  3  0  0  0  0  0  0  0  0  0  0
   -7.4011  -11.8774    0.0000 O   0  0  0  0  0  0  0  0  0  0  0  0
   -6.1021   -9.6275    0.0000 O   0  5  0  0  0  0  0  0  0  0  0  0
    5.6039  -11.8802    0.0000 N   0  0  0  0  0  0  0  0  0  0  0  0
    4.3049   -9.6302    0.0000 O   0  0  0  0  0  0  0  0  0  0  0  0
    6.9008  -11.1265    0.0000 O   0  0  0  0  0  0  0  0  0  0  0  0
    0.3957  -16.3747    0.0000 C   0  0  0  0  0  0  0  0  0  0  0  0
    0.3952  -17.8732    0.0000 C   0  0  0  0  0  0  0  0  0  0  0  0
    1.6952  -18.6249    0.0000 C   0  0  0  0  0  0  0  0  0  0  0  0
    2.9984  -17.8667    0.0000 C   0  0  0  0  0  0  0  0  0  0  0  0
    2.9928  -16.3707    0.0000 C   0  0  0  0  0  0  0  0  0  0  0  0
    1.6972  -20.1248    0.0000 Cl  0  0  0  0  0  0  0  0  0  0  0  0
 11 13  2  0  0  0  0
  6  7  1  0  0  0  0
 12 14  1  0  0  0  0
  1  4  1  0  0  0  0
  4  8  1  0  0  0  0
 14 15  2  0  0  0  0
 14 16  1  0  0  0  0
  8  9  1  0  0  0  0
  2 17  1  0  0  0  0
  2 18  2  0  0  0  0
  3  5  1  0  0  0  0
 17 19  1  0  0  0  0
  8 10  2  0  0  0  0
  9 20  2  0  0  0  0
  1  3  1  1  0  0  0
 20 21  1  0  0  0  0
  7 11  1  0  0  0  0
 21 22  2  0  0  0  0
  5  6  1  0  0  0  0
 22 23  1  0  0  0  0
 11 12  1  0  0  0  0
 23 24  2  0  0  0  0
 24  9  1  0  0  0  0
  1  2  1  0  0  0  0
 22 25  1  0  0  0  0
M  CHG  2  14   1  16  -1
M  END
> <Value>
3.6673595896125373

> <Relation>
=

> <SourceURI>
mol:CHEMBL573580

$$$$

Generated by Molecular Materials Informatics

 25 25  0  0  0  0  0  0  0  0999 V2000
   15.7333  -12.0068    0.0000 C   0  0  0  0  0  0  0  0  0  0  0  0
   17.0324  -11.2568    0.0000 C   0  0  0  0  0  0  0  0  0  0  0  0
   14.4345  -11.2568    0.0000 C   0  0  0  0  0  0  0  0  0  0  0  0
   15.7333  -13.5067    0.0000 N   0  0  0  0  0  0  0  0  0  0  0  0
   13.1354  -12.0068    0.0000 C   0  0  0  0  0  0  0  0  0  0  0  0
   11.8364  -11.2568    0.0000 C   0  0  0  0  0  0  0  0  0  0  0  0
   10.5373  -12.0068    0.0000 N   0  0  0  0  0  0  0  0  0  0  0  0
   14.4345  -14.2567    0.0000 C   0  0  0  0  0  0  0  0  0  0  0  0
   14.4345  -15.7567    0.0000 C   0  0  0  0  0  0  0  0  0  0  0  0
   13.1354  -13.5067    0.0000 O   0  0  0  0  0  0  0  0  0  0  0  0
    9.2384  -11.2568    0.0000 C   0  0  0  0  0  0  0  0  0  0  0  0
    7.9394  -12.0068    0.0000 N   0  0  0  0  0  0  0  0  0  0  0  0
    9.2384   -9.7569    0.0000 N   0  0  0  0  0  0  0  0  0  0  0  0
    6.6403  -11.2568    0.0000 N   0  3  0  0  0  0  0  0  0  0  0  0
    5.3322  -12.0024    0.0000 O   0  0  0  0  0  0  0  0  0  0  0  0
    6.6312   -9.7525    0.0000 O   0  5  0  0  0  0  0  0  0  0  0  0
   18.3372  -12.0051    0.0000 N   0  0  0  0  0  0  0  0  0  0  0  0
   17.0384   -9.7552    0.0000 O   0  0  0  0  0  0  0  0  0  0  0  0
   19.6341  -11.2515    0.0000 O   0  0  0  0  0  0  0  0  0  0  0  0
   13.1292  -16.4997    0.0000 C   0  0  0  0  0  0  0  0  0  0  0  0
   13.1285  -17.9982    0.0000 C   0  0  0  0  0  0  0  0  0  0  0  0
   14.4285  -18.7499    0.0000 C   0  0  0  0  0  0  0  0  0  0  0  0
   15.7319  -17.9917    0.0000 C   0  0  0  0  0  0  0  0  0  0  0  0
   15.7261  -16.4957    0.0000 C   0  0  0  0  0  0  0  0  0  0  0  0
   14.4305  -20.2498    0.0000 Br  0  0  0  0  0  0  0  0  0  0  0  0
 11 13  2  0  0  0  0
  6  7  1  0  0  0  0
 12 14  1  0  0  0  0
  1  4  1  0  0  0  0
  4  8  1  0  0  0  0
 14 15  2  0  0  0  0
 14 16  1  0  0  0  0
  8  9  1  0  0  0  0
  2 17  1  0  0  0  0
  2 18  2  0  0  0  0
  3  5  1  0  0  0  0
 17 19  1  0  0  0  0
  8 10  2  0  0  0  0
  9 20  2  0  0  0  0
  1  3  1  1  0  0  0
 20 21  1  0  0  0  0
  7 11  1  0  0  0  0
 21 22  2  0  0  0  0
  5  6  1  0  0  0  0
 22 23  1  0  0  0  0
 11 12  1  0  0  0  0
 23 24  2  0  0  0  0
 24  9  1  0  0  0  0
  1  2  1  0  0  0  0
 22 25  1  0  0  0  0
M  CHG  2  14   1  16  -1
M  END
> <Value>
3.3532043112215306

> <Relation>
=

> <SourceURI>
mol:CHEMBL578858

$$$$

Generated by Molecular Materials Informatics

 27 27  0  0  0  0  0  0  0  0999 V2000
    2.9375  -19.5165    0.0000 C   0  0  0  0  0  0  0  0  0  0  0  0
    4.2366  -18.7666    0.0000 C   0  0  0  0  0  0  0  0  0  0  0  0
    1.6385  -18.7666    0.0000 C   0  0  0  0  0  0  0  0  0  0  0  0
    2.9375  -21.0165    0.0000 N   0  0  0  0  0  0  0  0  0  0  0  0
    0.3396  -19.5165    0.0000 C   0  0  0  0  0  0  0  0  0  0  0  0
   -0.9594  -18.7666    0.0000 C   0  0  0  0  0  0  0  0  0  0  0  0
   -2.2585  -19.5165    0.0000 N   0  0  0  0  0  0  0  0  0  0  0  0
    1.6385  -21.7665    0.0000 C   0  0  0  0  0  0  0  0  0  0  0  0
    1.6385  -23.2664    0.0000 C   0  0  0  0  0  0  0  0  0  0  0  0
    0.3396  -21.0165    0.0000 O   0  0  0  0  0  0  0  0  0  0  0  0
   -3.5576  -18.7666    0.0000 C   0  0  0  0  0  0  0  0  0  0  0  0
   -4.8564  -19.5165    0.0000 N   0  0  0  0  0  0  0  0  0  0  0  0
   -3.5576  -17.2666    0.0000 N   0  0  0  0  0  0  0  0  0  0  0  0
   -6.1555  -18.7666    0.0000 N   0  3  0  0  0  0  0  0  0  0  0  0
   -7.4636  -19.5124    0.0000 O   0  0  0  0  0  0  0  0  0  0  0  0
   -6.1646  -17.2624    0.0000 O   0  5  0  0  0  0  0  0  0  0  0  0
    5.5414  -19.5151    0.0000 N   0  0  0  0  0  0  0  0  0  0  0  0
    4.2424  -17.2652    0.0000 O   0  0  0  0  0  0  0  0  0  0  0  0
    6.8383  -18.7615    0.0000 O   0  0  0  0  0  0  0  0  0  0  0  0
    0.3332  -24.0097    0.0000 C   0  0  0  0  0  0  0  0  0  0  0  0
    0.3327  -25.5082    0.0000 C   0  0  0  0  0  0  0  0  0  0  0  0
    1.6327  -26.2596    0.0000 C   0  0  0  0  0  0  0  0  0  0  0  0
    2.9359  -25.5016    0.0000 C   0  0  0  0  0  0  0  0  0  0  0  0
    2.9303  -24.0055    0.0000 C   0  0  0  0  0  0  0  0  0  0  0  0
    1.6343  -27.7605    0.0000 N   0  3  0  0  0  0  0  0  0  0  0  0
    2.9343  -28.5086    0.0000 O   0  0  0  0  0  0  0  0  0  0  0  0
    0.3363  -28.5121    0.0000 O   0  5  0  0  0  0  0  0  0  0  0  0
 12 14  1  0  0  0  0
  1  4  1  0  0  0  0
  4  8  1  0  0  0  0
 14 15  2  0  0  0  0
 14 16  1  0  0  0  0
  8  9  1  0  0  0  0
  2 17  1  0  0  0  0
  2 18  2  0  0  0  0
  3  5  1  0  0  0  0
 17 19  1  0  0  0  0
  8 10  2  0  0  0  0
  9 20  2  0  0  0  0
  1  3  1  1  0  0  0
 20 21  1  0  0  0  0
  7 11  1  0  0  0  0
 21 22  2  0  0  0  0
  5  6  1  0  0  0  0
 22 23  1  0  0  0  0
 11 12  1  0  0  0  0
 23 24  2  0  0  0  0
 24  9  1  0  0  0  0
  1  2  1  0  0  0  0
 11 13  2  0  0  0  0
  6  7  1  0  0  0  0
 25 26  2  0  0  0  0
 25 27  1  0  0  0  0
 22 25  1  0  0  0  0
M  CHG  4  14   1  16  -1  25   1  27  -1
M  END
> <Value>
4.798602875679548

> <Relation>
=

> <SourceURI>
mol:CHEMBL575800

$$$$

Generated by Molecular Materials Informatics

 26 26  0  0  0  0  0  0  0  0999 V2000
   15.6708  -19.6417    0.0000 C   0  0  0  0  0  0  0  0  0  0  0  0
   16.9699  -18.8917    0.0000 C   0  0  0  0  0  0  0  0  0  0  0  0
   14.3720  -18.8917    0.0000 C   0  0  0  0  0  0  0  0  0  0  0  0
   15.6708  -21.1416    0.0000 N   0  0  0  0  0  0  0  0  0  0  0  0
   13.0729  -19.6417    0.0000 C   0  0  0  0  0  0  0  0  0  0  0  0
   11.7739  -18.8917    0.0000 C   0  0  0  0  0  0  0  0  0  0  0  0
   10.4748  -19.6417    0.0000 N   0  0  0  0  0  0  0  0  0  0  0  0
   14.3720  -21.8916    0.0000 C   0  0  0  0  0  0  0  0  0  0  0  0
   14.3720  -23.3916    0.0000 C   0  0  0  0  0  0  0  0  0  0  0  0
   13.0729  -21.1416    0.0000 O   0  0  0  0  0  0  0  0  0  0  0  0
    9.1759  -18.8917    0.0000 C   0  0  0  0  0  0  0  0  0  0  0  0
    7.8769  -19.6417    0.0000 N   0  0  0  0  0  0  0  0  0  0  0  0
    9.1759  -17.3918    0.0000 N   0  0  0  0  0  0  0  0  0  0  0  0
    6.5778  -18.8917    0.0000 N   0  3  0  0  0  0  0  0  0  0  0  0
    5.2697  -19.6375    0.0000 O   0  0  0  0  0  0  0  0  0  0  0  0
    6.5687  -17.3876    0.0000 O   0  5  0  0  0  0  0  0  0  0  0  0
   18.2747  -19.6402    0.0000 N   0  0  0  0  0  0  0  0  0  0  0  0
   16.9759  -17.3903    0.0000 O   0  0  0  0  0  0  0  0  0  0  0  0
   19.5716  -18.8866    0.0000 O   0  0  0  0  0  0  0  0  0  0  0  0
   13.0667  -24.1348    0.0000 C   0  0  0  0  0  0  0  0  0  0  0  0
   13.0660  -25.6333    0.0000 C   0  0  0  0  0  0  0  0  0  0  0  0
   14.3660  -26.3848    0.0000 C   0  0  0  0  0  0  0  0  0  0  0  0
   15.6694  -25.6268    0.0000 C   0  0  0  0  0  0  0  0  0  0  0  0
   15.6636  -24.1307    0.0000 C   0  0  0  0  0  0  0  0  0  0  0  0
   14.3680  -27.8847    0.0000 O   0  0  0  0  0  0  0  0  0  0  0  0
   13.0700  -28.6365    0.0000 C   0  0  0  0  0  0  0  0  0  0  0  0
  6  7  1  0  0  0  0
 12 14  1  0  0  0  0
  1  4  1  0  0  0  0
  4  8  1  0  0  0  0
 14 15  2  0  0  0  0
 14 16  1  0  0  0  0
  8  9  1  0  0  0  0
  2 17  1  0  0  0  0
  2 18  2  0  0  0  0
  3  5  1  0  0  0  0
 17 19  1  0  0  0  0
  8 10  2  0  0  0  0
  9 20  2  0  0  0  0
  1  3  1  1  0  0  0
 20 21  1  0  0  0  0
  7 11  1  0  0  0  0
 21 22  2  0  0  0  0
  5  6  1  0  0  0  0
 22 23  1  0  0  0  0
 11 12  1  0  0  0  0
 23 24  2  0  0  0  0
 24  9  1  0  0  0  0
  1  2  1  0  0  0  0
 22 25  1  0  0  0  0
 11 13  2  0  0  0  0
 25 26  1  0  0  0  0
M  CHG  2  14   1  16  -1
M  END
> <Value>
4.220403508742176

> <Relation>
=

> <SourceURI>
mol:CHEMBL574056

$$$$

Generated by Molecular Materials Informatics

 26 26  0  0  0  0  0  0  0  0999 V2000
    3.2833    2.3474    0.0000 C   0  0  0  0  0  0  0  0  0  0  0  0
    4.5824    3.0974    0.0000 C   0  0  0  0  0  0  0  0  0  0  0  0
    1.9845    3.0974    0.0000 C   0  0  0  0  0  0  0  0  0  0  0  0
    3.2833    0.8475    0.0000 N   0  0  0  0  0  0  0  0  0  0  0  0
    0.6854    2.3474    0.0000 C   0  0  0  0  0  0  0  0  0  0  0  0
   -0.6136    3.0974    0.0000 C   0  0  0  0  0  0  0  0  0  0  0  0
   -1.9127    2.3474    0.0000 N   0  0  0  0  0  0  0  0  0  0  0  0
    1.9845    0.0975    0.0000 C   0  0  0  0  0  0  0  0  0  0  0  0
    1.9845   -1.4025    0.0000 C   0  0  0  0  0  0  0  0  0  0  0  0
    0.6854    0.8475    0.0000 O   0  0  0  0  0  0  0  0  0  0  0  0
   -3.2116    3.0974    0.0000 C   0  0  0  0  0  0  0  0  0  0  0  0
   -4.5106    2.3474    0.0000 N   0  0  0  0  0  0  0  0  0  0  0  0
   -3.2116    4.5973    0.0000 N   0  0  0  0  0  0  0  0  0  0  0  0
   -5.8097    3.0974    0.0000 N   0  3  0  0  0  0  0  0  0  0  0  0
   -7.1178    2.3518    0.0000 O   0  0  0  0  0  0  0  0  0  0  0  0
   -5.8188    4.6017    0.0000 O   0  5  0  0  0  0  0  0  0  0  0  0
    5.8872    2.3489    0.0000 N   0  0  0  0  0  0  0  0  0  0  0  0
    4.5884    4.5988    0.0000 O   0  0  0  0  0  0  0  0  0  0  0  0
    7.1841    3.1027    0.0000 O   0  0  0  0  0  0  0  0  0  0  0  0
    0.6792   -2.1455    0.0000 C   0  0  0  0  0  0  0  0  0  0  0  0
    0.6785   -3.6442    0.0000 C   0  0  0  0  0  0  0  0  0  0  0  0
    1.9785   -4.3957    0.0000 C   0  0  0  0  0  0  0  0  0  0  0  0
    3.2819   -3.6377    0.0000 C   0  0  0  0  0  0  0  0  0  0  0  0
    3.2761   -2.1415    0.0000 C   0  0  0  0  0  0  0  0  0  0  0  0
    1.9805   -5.8956    0.0000 Cl  0  0  0  0  0  0  0  0  0  0  0  0
    4.5722   -1.3865    0.0000 Cl  0  0  0  0  0  0  0  0  0  0  0  0
  6  7  1  0  0  0  0
 12 14  1  0  0  0  0
  1  4  1  0  0  0  0
  4  8  1  0  0  0  0
 14 15  2  0  0  0  0
 14 16  1  0  0  0  0
  8  9  1  0  0  0  0
  2 17  1  0  0  0  0
  2 18  2  0  0  0  0
  3  5  1  0  0  0  0
 17 19  1  0  0  0  0
  8 10  2  0  0  0  0
  9 20  2  0  0  0  0
  1  3  1  1  0  0  0
 20 21  1  0  0  0  0
  7 11  1  0  0  0  0
 21 22  2  0  0  0  0
  5  6  1  0  0  0  0
 22 23  1  0  0  0  0
 11 12  1  0  0  0  0
 23 24  2  0  0  0  0
 24  9  1  0  0  0  0
  1  2  1  0  0  0  0
 22 25  1  0  0  0  0
 11 13  2  0  0  0  0
 24 26  1  0  0  0  0
M  CHG  2  14   1  16  -1
M  END
> <Value>
5.275724130399211

> <Relation>
=

> <SourceURI>
mol:CHEMBL574057

$$$$

Generated by Molecular Materials Informatics

 26 26  0  0  0  0  0  0  0  0999 V2000
   16.0167    2.2224    0.0000 C   0  0  0  0  0  0  0  0  0  0  0  0
   17.3156    2.9724    0.0000 C   0  0  0  0  0  0  0  0  0  0  0  0
   14.7177    2.9724    0.0000 C   0  0  0  0  0  0  0  0  0  0  0  0
   16.0167    0.7225    0.0000 N   0  0  0  0  0  0  0  0  0  0  0  0
   13.4186    2.2224    0.0000 C   0  0  0  0  0  0  0  0  0  0  0  0
   12.1198    2.9724    0.0000 C   0  0  0  0  0  0  0  0  0  0  0  0
   10.8207    2.2224    0.0000 N   0  0  0  0  0  0  0  0  0  0  0  0
   14.7177   -0.0275    0.0000 C   0  0  0  0  0  0  0  0  0  0  0  0
   14.7177   -1.5275    0.0000 C   0  0  0  0  0  0  0  0  0  0  0  0
   13.4186    0.7225    0.0000 O   0  0  0  0  0  0  0  0  0  0  0  0
    9.5216    2.9724    0.0000 C   0  0  0  0  0  0  0  0  0  0  0  0
    8.2226    2.2224    0.0000 N   0  0  0  0  0  0  0  0  0  0  0  0
    9.5216    4.4723    0.0000 N   0  0  0  0  0  0  0  0  0  0  0  0
    6.9237    2.9724    0.0000 N   0  3  0  0  0  0  0  0  0  0  0  0
    5.6156    2.2268    0.0000 O   0  0  0  0  0  0  0  0  0  0  0  0
    6.9145    4.4767    0.0000 O   0  5  0  0  0  0  0  0  0  0  0  0
   18.6206    2.2239    0.0000 N   0  0  0  0  0  0  0  0  0  0  0  0
   17.3216    4.4738    0.0000 O   0  0  0  0  0  0  0  0  0  0  0  0
   19.9175    2.9777    0.0000 O   0  0  0  0  0  0  0  0  0  0  0  0
   13.4124   -2.2705    0.0000 C   0  0  0  0  0  0  0  0  0  0  0  0
   13.4119   -3.7692    0.0000 C   0  0  0  0  0  0  0  0  0  0  0  0
   14.7119   -4.5207    0.0000 C   0  0  0  0  0  0  0  0  0  0  0  0
   16.0151   -3.7627    0.0000 C   0  0  0  0  0  0  0  0  0  0  0  0
   16.0093   -2.2665    0.0000 C   0  0  0  0  0  0  0  0  0  0  0  0
   14.7139   -6.0206    0.0000 Cl  0  0  0  0  0  0  0  0  0  0  0  0
   12.1125   -4.5185    0.0000 Cl  0  0  0  0  0  0  0  0  0  0  0  0
  6  7  1  0  0  0  0
 12 14  1  0  0  0  0
  1  4  1  0  0  0  0
  4  8  1  0  0  0  0
 14 15  2  0  0  0  0
 14 16  1  0  0  0  0
  8  9  1  0  0  0  0
  2 17  1  0  0  0  0
  2 18  2  0  0  0  0
  3  5  1  0  0  0  0
 17 19  1  0  0  0  0
  8 10  2  0  0  0  0
  9 20  2  0  0  0  0
  1  3  1  1  0  0  0
 20 21  1  0  0  0  0
  7 11  1  0  0  0  0
 21 22  2  0  0  0  0
  5  6  1  0  0  0  0
 22 23  1  0  0  0  0
 11 12  1  0  0  0  0
 23 24  2  0  0  0  0
 24  9  1  0  0  0  0
  1  2  1  0  0  0  0
 22 25  1  0  0  0  0
 11 13  2  0  0  0  0
 21 26  1  0  0  0  0
M  CHG  2  14   1  16  -1
M  END
> <Value>
4.474955192963154

> <Relation>
=

> <SourceURI>
mol:CHEMBL573583

$$$$

Generated by Molecular Materials Informatics

 28 28  0  0  0  0  0  0  0  0999 V2000
    3.5042   -5.6476    0.0000 C   0  0  0  0  0  0  0  0  0  0  0  0
    4.8031   -4.8976    0.0000 C   0  0  0  0  0  0  0  0  0  0  0  0
    2.2052   -4.8976    0.0000 C   0  0  0  0  0  0  0  0  0  0  0  0
    3.5042   -7.1476    0.0000 N   0  0  0  0  0  0  0  0  0  0  0  0
    0.9061   -5.6476    0.0000 C   0  0  0  0  0  0  0  0  0  0  0  0
   -0.3927   -4.8976    0.0000 C   0  0  0  0  0  0  0  0  0  0  0  0
   -1.6918   -5.6476    0.0000 N   0  0  0  0  0  0  0  0  0  0  0  0
    2.2052   -7.8975    0.0000 C   0  0  0  0  0  0  0  0  0  0  0  0
    2.2052   -9.3975    0.0000 C   0  0  0  0  0  0  0  0  0  0  0  0
    0.9061   -7.1476    0.0000 O   0  0  0  0  0  0  0  0  0  0  0  0
   -2.9909   -4.8976    0.0000 C   0  0  0  0  0  0  0  0  0  0  0  0
   -4.2899   -5.6476    0.0000 N   0  0  0  0  0  0  0  0  0  0  0  0
   -2.9909   -3.3977    0.0000 N   0  0  0  0  0  0  0  0  0  0  0  0
   -5.5888   -4.8976    0.0000 N   0  3  0  0  0  0  0  0  0  0  0  0
   -6.8969   -5.6434    0.0000 O   0  0  0  0  0  0  0  0  0  0  0  0
   -5.5980   -3.3935    0.0000 O   0  5  0  0  0  0  0  0  0  0  0  0
    6.1081   -5.6462    0.0000 N   0  0  0  0  0  0  0  0  0  0  0  0
    4.8091   -3.3962    0.0000 O   0  0  0  0  0  0  0  0  0  0  0  0
    7.4050   -4.8925    0.0000 O   0  0  0  0  0  0  0  0  0  0  0  0
    0.8999  -10.1407    0.0000 C   0  0  0  0  0  0  0  0  0  0  0  0
    0.8994  -11.6392    0.0000 C   0  0  0  0  0  0  0  0  0  0  0  0
    2.1994  -12.3907    0.0000 C   0  0  0  0  0  0  0  0  0  0  0  0
    3.5026  -11.6327    0.0000 C   0  0  0  0  0  0  0  0  0  0  0  0
    3.4968  -10.1366    0.0000 C   0  0  0  0  0  0  0  0  0  0  0  0
    2.2014  -13.8906    0.0000 Br  0  0  0  0  0  0  0  0  0  0  0  0
   -0.4069  -12.3938    0.0000 N   0  3  0  0  0  0  0  0  0  0  0  0
   -0.4077  -13.8939    0.0000 O   0  0  0  0  0  0  0  0  0  0  0  0
   -1.7056  -11.6432    0.0000 O   0  5  0  0  0  0  0  0  0  0  0  0
  1  4  1  0  0  0  0
  4  8  1  0  0  0  0
 14 15  2  0  0  0  0
 14 16  1  0  0  0  0
  8  9  1  0  0  0  0
  2 17  1  0  0  0  0
  2 18  2  0  0  0  0
  3  5  1  0  0  0  0
 17 19  1  0  0  0  0
  8 10  2  0  0  0  0
  9 20  2  0  0  0  0
  1  3  1  1  0  0  0
 20 21  1  0  0  0  0
  7 11  1  0  0  0  0
 21 22  2  0  0  0  0
  5  6  1  0  0  0  0
 22 23  1  0  0  0  0
 11 12  1  0  0  0  0
 23 24  2  0  0  0  0
 24  9  1  0  0  0  0
  1  2  1  0  0  0  0
 22 25  1  0  0  0  0
 11 13  2  0  0  0  0
  6  7  1  0  0  0  0
 12 14  1  0  0  0  0
 26 27  2  0  0  0  0
 26 28  1  0  0  0  0
 21 26  1  0  0  0  0
M  CHG  4  14   1  16  -1  26   1  28  -1
M  END
> <Value>
5.292429823902063

> <Relation>
=

> <SourceURI>
mol:CHEMBL578859

$$$$

Generated by Molecular Materials Informatics

 28 29  0  0  0  0  0  0  0  0999 V2000
   16.2376   -5.6070    0.0000 C   0  0  0  0  0  0  0  0  0  0  0  0
   17.5367   -4.8570    0.0000 C   0  0  0  0  0  0  0  0  0  0  0  0
   14.9385   -4.8570    0.0000 C   0  0  0  0  0  0  0  0  0  0  0  0
   16.2376   -7.1070    0.0000 N   0  0  0  0  0  0  0  0  0  0  0  0
   13.6396   -5.6070    0.0000 C   0  0  0  0  0  0  0  0  0  0  0  0
   12.3405   -4.8570    0.0000 C   0  0  0  0  0  0  0  0  0  0  0  0
   11.0414   -5.6070    0.0000 N   0  0  0  0  0  0  0  0  0  0  0  0
   14.9385   -7.8570    0.0000 C   0  0  0  0  0  0  0  0  0  0  0  0
   14.9385   -9.3570    0.0000 C   0  0  0  0  0  0  0  0  0  0  0  0
   13.6396   -7.1070    0.0000 O   0  0  0  0  0  0  0  0  0  0  0  0
    9.7423   -4.8570    0.0000 C   0  0  0  0  0  0  0  0  0  0  0  0
    8.4434   -5.6070    0.0000 N   0  0  0  0  0  0  0  0  0  0  0  0
    9.7423   -3.3570    0.0000 N   0  0  0  0  0  0  0  0  0  0  0  0
    7.1444   -4.8570    0.0000 N   0  3  0  0  0  0  0  0  0  0  0  0
    5.8362   -5.6029    0.0000 O   0  0  0  0  0  0  0  0  0  0  0  0
    7.1353   -3.3529    0.0000 O   0  5  0  0  0  0  0  0  0  0  0  0
   18.8416   -5.6056    0.0000 N   0  0  0  0  0  0  0  0  0  0  0  0
   17.5425   -3.3556    0.0000 O   0  0  0  0  0  0  0  0  0  0  0  0
   20.1385   -4.8520    0.0000 O   0  0  0  0  0  0  0  0  0  0  0  0
   13.6333  -10.1003    0.0000 C   0  0  0  0  0  0  0  0  0  0  0  0
   16.2360  -11.5923    0.0000 C   0  0  0  0  0  0  0  0  0  0  0  0
   16.2303  -10.0961    0.0000 C   0  0  0  0  0  0  0  0  0  0  0  0
   14.9327  -12.3503    0.0000 C   0  0  0  0  0  0  0  0  0  0  0  0
   13.6380  -11.5952    0.0000 C   0  0  0  0  0  0  0  0  0  0  0  0
   12.3404  -12.3389    0.0000 C   0  0  0  0  0  0  0  0  0  0  0  0
   12.3354  -13.8372    0.0000 C   0  0  0  0  0  0  0  0  0  0  0  0
   13.6387  -14.5890    0.0000 C   0  0  0  0  0  0  0  0  0  0  0  0
   14.9311  -13.8412    0.0000 C   0  0  0  0  0  0  0  0  0  0  0  0
  1  4  1  0  0  0  0
  4  8  1  0  0  0  0
 14 15  2  0  0  0  0
 14 16  1  0  0  0  0
  8  9  1  0  0  0  0
  2 17  1  0  0  0  0
  2 18  2  0  0  0  0
  3  5  1  0  0  0  0
 17 19  1  0  0  0  0
  8 10  2  0  0  0  0
  9 20  2  0  0  0  0
 20 24  1  0  0  0  0
  1  3  1  1  0  0  0
 23 21  1  0  0  0  0
  7 11  1  0  0  0  0
 21 22  2  0  0  0  0
 22  9  1  0  0  0  0
  5  6  1  0  0  0  0
 11 12  1  0  0  0  0
 23 24  1  0  0  0  0
  1  2  1  0  0  0  0
 24 25  2  0  0  0  0
 11 13  2  0  0  0  0
 25 26  1  0  0  0  0
  6  7  1  0  0  0  0
 26 27  2  0  0  0  0
 12 14  1  0  0  0  0
 27 28  1  0  0  0  0
 28 23  2  0  0  0  0
M  CHG  2  14   1  16  -1
M  END
> <Value>
4.835647144215563

> <Relation>
=

> <SourceURI>
mol:CHEMBL582839

$$$$

Generated by Molecular Materials Informatics

 28 28  0  0  0  0  0  0  0  0999 V2000
    3.7417  -12.6167    0.0000 C   0  0  0  0  0  0  0  0  0  0  0  0
    5.0406  -11.8667    0.0000 C   0  0  0  0  0  0  0  0  0  0  0  0
    2.4427  -11.8667    0.0000 C   0  0  0  0  0  0  0  0  0  0  0  0
    3.7417  -14.1167    0.0000 N   0  0  0  0  0  0  0  0  0  0  0  0
    1.1436  -12.6167    0.0000 C   0  0  0  0  0  0  0  0  0  0  0  0
   -0.1552  -11.8667    0.0000 C   0  0  0  0  0  0  0  0  0  0  0  0
   -1.4543  -12.6167    0.0000 N   0  0  0  0  0  0  0  0  0  0  0  0
    2.4427  -14.8666    0.0000 C   0  0  0  0  0  0  0  0  0  0  0  0
    2.4427  -16.3666    0.0000 C   0  0  0  0  0  0  0  0  0  0  0  0
    1.1436  -14.1167    0.0000 O   0  0  0  0  0  0  0  0  0  0  0  0
   -2.7534  -11.8667    0.0000 C   0  0  0  0  0  0  0  0  0  0  0  0
   -4.0524  -12.6167    0.0000 N   0  0  0  0  0  0  0  0  0  0  0  0
   -2.7534  -10.3668    0.0000 N   0  0  0  0  0  0  0  0  0  0  0  0
   -5.3513  -11.8667    0.0000 N   0  3  0  0  0  0  0  0  0  0  0  0
   -6.6594  -12.6125    0.0000 O   0  0  0  0  0  0  0  0  0  0  0  0
   -5.3605  -10.3626    0.0000 O   0  5  0  0  0  0  0  0  0  0  0  0
    6.3456  -12.6152    0.0000 N   0  0  0  0  0  0  0  0  0  0  0  0
    5.0466  -10.3653    0.0000 O   0  0  0  0  0  0  0  0  0  0  0  0
    7.6425  -11.8616    0.0000 O   0  0  0  0  0  0  0  0  0  0  0  0
    1.1374  -17.1098    0.0000 C   0  0  0  0  0  0  0  0  0  0  0  0
    1.1369  -18.6083    0.0000 C   0  0  0  0  0  0  0  0  0  0  0  0
    2.4369  -19.3598    0.0000 C   0  0  0  0  0  0  0  0  0  0  0  0
    3.7401  -18.6018    0.0000 C   0  0  0  0  0  0  0  0  0  0  0  0
    3.7343  -17.1057    0.0000 C   0  0  0  0  0  0  0  0  0  0  0  0
    2.4389  -20.8597    0.0000 O   0  0  0  0  0  0  0  0  0  0  0  0
    1.1407  -21.6115    0.0000 C   0  0  0  0  0  0  0  0  0  0  0  0
   -0.1625  -19.3578    0.0000 O   0  0  0  0  0  0  0  0  0  0  0  0
   -1.4612  -18.6071    0.0000 C   0  0  0  0  0  0  0  0  0  0  0  0
  1  4  1  0  0  0  0
  4  8  1  0  0  0  0
 14 15  2  0  0  0  0
 14 16  1  0  0  0  0
  8  9  1  0  0  0  0
  2 17  1  0  0  0  0
  2 18  2  0  0  0  0
  3  5  1  0  0  0  0
 17 19  1  0  0  0  0
  8 10  2  0  0  0  0
  9 20  2  0  0  0  0
  1  3  1  1  0  0  0
 20 21  1  0  0  0  0
  7 11  1  0  0  0  0
 21 22  2  0  0  0  0
  5  6  1  0  0  0  0
 22 23  1  0  0  0  0
 11 12  1  0  0  0  0
 23 24  2  0  0  0  0
 24  9  1  0  0  0  0
  1  2  1  0  0  0  0
 22 25  1  0  0  0  0
 11 13  2  0  0  0  0
 25 26  1  0  0  0  0
  6  7  1  0  0  0  0
 21 27  1  0  0  0  0
 12 14  1  0  0  0  0
 27 28  1  0  0  0  0
M  CHG  2  14   1  16  -1
M  END
> <Value>
4.570247719997592

> <Relation>
=

> <SourceURI>
mol:CHEMBL574273

$$$$

Generated by Molecular Materials Informatics

 30 30  0  0  0  0  0  0  0  0999 V2000
   16.4750  -12.7417    0.0000 C   0  0  0  0  0  0  0  0  0  0  0  0
   17.7741  -11.9917    0.0000 C   0  0  0  0  0  0  0  0  0  0  0  0
   15.1760  -11.9917    0.0000 C   0  0  0  0  0  0  0  0  0  0  0  0
   16.4750  -14.2416    0.0000 N   0  0  0  0  0  0  0  0  0  0  0  0
   13.8771  -12.7417    0.0000 C   0  0  0  0  0  0  0  0  0  0  0  0
   12.5780  -11.9917    0.0000 C   0  0  0  0  0  0  0  0  0  0  0  0
   11.2790  -12.7417    0.0000 N   0  0  0  0  0  0  0  0  0  0  0  0
   15.1760  -14.9916    0.0000 C   0  0  0  0  0  0  0  0  0  0  0  0
   15.1760  -16.4916    0.0000 C   0  0  0  0  0  0  0  0  0  0  0  0
   13.8771  -14.2416    0.0000 O   0  0  0  0  0  0  0  0  0  0  0  0
    9.9799  -11.9917    0.0000 C   0  0  0  0  0  0  0  0  0  0  0  0
    8.6811  -12.7417    0.0000 N   0  0  0  0  0  0  0  0  0  0  0  0
    9.9799  -10.4918    0.0000 N   0  0  0  0  0  0  0  0  0  0  0  0
    7.3820  -11.9917    0.0000 N   0  3  0  0  0  0  0  0  0  0  0  0
    6.0739  -12.7375    0.0000 O   0  0  0  0  0  0  0  0  0  0  0  0
    7.3729  -10.4876    0.0000 O   0  5  0  0  0  0  0  0  0  0  0  0
   19.0789  -12.7402    0.0000 N   0  0  0  0  0  0  0  0  0  0  0  0
   17.7799  -10.4903    0.0000 O   0  0  0  0  0  0  0  0  0  0  0  0
   20.3758  -11.9866    0.0000 O   0  0  0  0  0  0  0  0  0  0  0  0
   13.8707  -17.2348    0.0000 C   0  0  0  0  0  0  0  0  0  0  0  0
   13.8702  -18.7333    0.0000 C   0  0  0  0  0  0  0  0  0  0  0  0
   15.1702  -19.4848    0.0000 C   0  0  0  0  0  0  0  0  0  0  0  0
   16.4734  -18.7268    0.0000 C   0  0  0  0  0  0  0  0  0  0  0  0
   16.4678  -17.2307    0.0000 C   0  0  0  0  0  0  0  0  0  0  0  0
   15.1722  -20.9847    0.0000 O   0  0  0  0  0  0  0  0  0  0  0  0
   13.8742  -21.7365    0.0000 C   0  0  0  0  0  0  0  0  0  0  0  0
   17.7752  -19.4722    0.0000 O   0  0  0  0  0  0  0  0  0  0  0  0
   12.5708  -19.4828    0.0000 O   0  0  0  0  0  0  0  0  0  0  0  0
   11.2721  -18.7321    0.0000 C   0  0  0  0  0  0  0  0  0  0  0  0
   19.0715  -18.7177    0.0000 C   0  0  0  0  0  0  0  0  0  0  0  0
 14 15  2  0  0  0  0
 14 16  1  0  0  0  0
  8  9  1  0  0  0  0
  2 17  1  0  0  0  0
  2 18  2  0  0  0  0
  3  5  1  0  0  0  0
 17 19  1  0  0  0  0
  8 10  2  0  0  0  0
  9 20  2  0  0  0  0
  1  3  1  1  0  0  0
 20 21  1  0  0  0  0
  7 11  1  0  0  0  0
 21 22  2  0  0  0  0
  5  6  1  0  0  0  0
 22 23  1  0  0  0  0
 11 12  1  0  0  0  0
 23 24  2  0  0  0  0
 24  9  1  0  0  0  0
  1  2  1  0  0  0  0
 22 25  1  0  0  0  0
 11 13  2  0  0  0  0
 25 26  1  0  0  0  0
  6  7  1  0  0  0  0
 23 27  1  0  0  0  0
 12 14  1  0  0  0  0
 21 28  1  0  0  0  0
  1  4  1  0  0  0  0
 28 29  1  0  0  0  0
  4  8  1  0  0  0  0
 27 30  1  0  0  0  0
M  CHG  2  14   1  16  -1
M  END
> <Value>
3.5676722077383958

> <Relation>
=

> <SourceURI>
mol:CHEMBL574274

$$$$

Generated by Molecular Materials Informatics

 23 23  0  0  0  0  0  0  0  0999 V2000
    3.2750  -20.5850    0.0000 C   0  0  0  0  0  0  0  0  0  0  0  0
    4.5741  -19.8350    0.0000 C   0  0  0  0  0  0  0  0  0  0  0  0
    1.9760  -19.8350    0.0000 C   0  0  0  0  0  0  0  0  0  0  0  0
    3.2750  -22.0849    0.0000 N   0  0  0  0  0  0  0  0  0  0  0  0
    0.6771  -20.5850    0.0000 C   0  0  0  0  0  0  0  0  0  0  0  0
   -0.6219  -19.8350    0.0000 C   0  0  0  0  0  0  0  0  0  0  0  0
   -1.9210  -20.5850    0.0000 N   0  0  0  0  0  0  0  0  0  0  0  0
    1.9760  -22.8349    0.0000 C   0  0  0  0  0  0  0  0  0  0  0  0
    1.9760  -24.3348    0.0000 C   0  0  0  0  0  0  0  0  0  0  0  0
    0.6771  -22.0849    0.0000 O   0  0  0  0  0  0  0  0  0  0  0  0
   -3.2201  -19.8350    0.0000 C   0  0  0  0  0  0  0  0  0  0  0  0
   -4.5189  -20.5850    0.0000 N   0  0  0  0  0  0  0  0  0  0  0  0
   -3.2201  -18.3350    0.0000 N   0  0  0  0  0  0  0  0  0  0  0  0
   -5.8180  -19.8350    0.0000 N   0  3  0  0  0  0  0  0  0  0  0  0
   -7.1261  -20.5806    0.0000 O   0  0  0  0  0  0  0  0  0  0  0  0
   -5.8271  -18.3307    0.0000 O   0  5  0  0  0  0  0  0  0  0  0  0
    5.8789  -20.5833    0.0000 N   0  0  0  0  0  0  0  0  0  0  0  0
    4.5799  -18.3334    0.0000 O   0  0  0  0  0  0  0  0  0  0  0  0
    7.1758  -19.8297    0.0000 O   0  0  0  0  0  0  0  0  0  0  0  0
    0.7711  -25.2205    0.0000 S   0  0  0  0  0  0  0  0  0  0  0  0
    1.2345  -26.6471    0.0000 C   0  0  0  0  0  0  0  0  0  0  0  0
    2.7347  -26.6471    0.0000 C   0  0  0  0  0  0  0  0  0  0  0  0
    3.1979  -25.2205    0.0000 C   0  0  0  0  0  0  0  0  0  0  0  0
 11 12  1  0  0  0  0
  1  2  1  0  0  0  0
 11 13  2  0  0  0  0
  6  7  1  0  0  0  0
 12 14  1  0  0  0  0
  1  4  1  0  0  0  0
  4  8  1  0  0  0  0
 14 15  2  0  0  0  0
 14 16  1  0  0  0  0
  8  9  1  0  0  0  0
  2 17  1  0  0  0  0
  2 18  2  0  0  0  0
  3  5  1  0  0  0  0
 17 19  1  0  0  0  0
  9 20  1  0  0  0  0
  8 10  2  0  0  0  0
  1  3  1  1  0  0  0
  7 11  1  0  0  0  0
  5  6  1  0  0  0  0
 20 21  1  0  0  0  0
 21 22  2  0  0  0  0
 22 23  1  0  0  0  0
 23  9  2  0  0  0  0
M  CHG  2  14   1  16  -1
M  END
> <Value>
4.0670191780768015

> <Relation>
=

> <SourceURI>
mol:CHEMBL583183

$$$$

Generated by Molecular Materials Informatics

 25 25  0  0  0  0  0  0  0  0999 V2000
    3.8167    0.9826    0.0000 C   0  0  0  0  0  0  0  0  0  0  0  0
    5.1156    1.7326    0.0000 C   0  0  0  0  0  0  0  0  0  0  0  0
    2.5177    1.7326    0.0000 C   0  0  0  0  0  0  0  0  0  0  0  0
    3.8167   -0.5174    0.0000 N   0  0  0  0  0  0  0  0  0  0  0  0
    1.2186    0.9826    0.0000 C   0  0  0  0  0  0  0  0  0  0  0  0
   -0.0802    1.7326    0.0000 C   0  0  0  0  0  0  0  0  0  0  0  0
   -1.3793    0.9826    0.0000 N   0  0  0  0  0  0  0  0  0  0  0  0
   -2.6784    1.7326    0.0000 C   0  0  0  0  0  0  0  0  0  0  0  0
   -3.9774    0.9826    0.0000 N   0  0  0  0  0  0  0  0  0  0  0  0
   -2.6784    3.2325    0.0000 N   0  0  0  0  0  0  0  0  0  0  0  0
   -5.2763    1.7326    0.0000 N   0  3  0  0  0  0  0  0  0  0  0  0
   -6.5844    0.9869    0.0000 O   0  0  0  0  0  0  0  0  0  0  0  0
   -5.2855    3.2369    0.0000 O   0  5  0  0  0  0  0  0  0  0  0  0
    6.4206    0.9840    0.0000 N   0  0  0  0  0  0  0  0  0  0  0  0
    5.1216    3.2340    0.0000 O   0  0  0  0  0  0  0  0  0  0  0  0
    7.7175    1.7378    0.0000 O   0  0  0  0  0  0  0  0  0  0  0  0
    2.5177   -1.2673    0.0000 S   0  0  0  0  0  0  0  0  0  0  0  0
    1.2106   -2.0097    0.0000 C   0  0  0  0  0  0  0  0  0  0  0  0
    3.2631   -2.5689    0.0000 O   0  0  0  0  0  0  0  0  0  0  0  0
    1.7750    0.0359    0.0000 O   0  0  0  0  0  0  0  0  0  0  0  0
   -0.0848   -1.2437    0.0000 C   0  0  0  0  0  0  0  0  0  0  0  0
   -1.3909   -1.9848    0.0000 C   0  0  0  0  0  0  0  0  0  0  0  0
   -1.4024   -3.4895    0.0000 C   0  0  0  0  0  0  0  0  0  0  0  0
   -0.0968   -4.2500    0.0000 C   0  0  0  0  0  0  0  0  0  0  0  0
    1.2041   -3.5045    0.0000 C   0  0  0  0  0  0  0  0  0  0  0  0
 11 13  1  0  0  0  0
  6  7  1  0  0  0  0
  1  4  1  0  0  0  0
  2 14  1  0  0  0  0
  2 15  2  0  0  0  0
  7  8  1  0  0  0  0
 14 16  1  0  0  0  0
  4 17  1  0  0  0  0
  8  9  1  0  0  0  0
 17 18  1  0  0  0  0
  3  5  1  0  0  0  0
 17 19  2  0  0  0  0
  8 10  2  0  0  0  0
 17 20  2  0  0  0  0
  1  3  1  1  0  0  0
 18 21  2  0  0  0  0
  9 11  1  0  0  0  0
 21 22  1  0  0  0  0
  5  6  1  0  0  0  0
 22 23  2  0  0  0  0
  1  2  1  0  0  0  0
 23 24  1  0  0  0  0
 11 12  2  0  0  0  0
 24 25  2  0  0  0  0
 25 18  1  0  0  0  0
M  CHG  2  11   1  13  -1
M  END
> <Value>
4.220403508742176

> <Relation>
=

> <SourceURI>
mol:CHEMBL575397

$$$$

Generated by Molecular Materials Informatics

 26 26  0  0  0  0  0  0  0  0999 V2000
   14.6792    0.7951    0.0000 C   0  0  0  0  0  0  0  0  0  0  0  0
   15.9781    1.5451    0.0000 C   0  0  0  0  0  0  0  0  0  0  0  0
   13.3802    1.5451    0.0000 C   0  0  0  0  0  0  0  0  0  0  0  0
   14.6792   -0.7049    0.0000 N   0  0  0  0  0  0  0  0  0  0  0  0
   12.0811    0.7951    0.0000 C   0  0  0  0  0  0  0  0  0  0  0  0
   10.7823    1.5451    0.0000 C   0  0  0  0  0  0  0  0  0  0  0  0
    9.4832    0.7951    0.0000 N   0  0  0  0  0  0  0  0  0  0  0  0
    8.1842    1.5451    0.0000 C   0  0  0  0  0  0  0  0  0  0  0  0
    6.8851    0.7951    0.0000 N   0  0  0  0  0  0  0  0  0  0  0  0
    8.1842    3.0450    0.0000 N   0  0  0  0  0  0  0  0  0  0  0  0
    5.5862    1.5451    0.0000 N   0  3  0  0  0  0  0  0  0  0  0  0
    4.2781    0.7994    0.0000 O   0  0  0  0  0  0  0  0  0  0  0  0
    5.5770    3.0494    0.0000 O   0  5  0  0  0  0  0  0  0  0  0  0
   17.2831    0.7965    0.0000 N   0  0  0  0  0  0  0  0  0  0  0  0
   15.9841    3.0465    0.0000 O   0  0  0  0  0  0  0  0  0  0  0  0
   18.5800    1.5503    0.0000 O   0  0  0  0  0  0  0  0  0  0  0  0
   13.3802   -1.4548    0.0000 S   0  0  0  0  0  0  0  0  0  0  0  0
   12.0731   -2.1972    0.0000 C   0  0  0  0  0  0  0  0  0  0  0  0
   14.1256   -2.7564    0.0000 O   0  0  0  0  0  0  0  0  0  0  0  0
   12.6375   -0.1516    0.0000 O   0  0  0  0  0  0  0  0  0  0  0  0
   10.7777   -1.4312    0.0000 C   0  0  0  0  0  0  0  0  0  0  0  0
    9.4716   -2.1723    0.0000 C   0  0  0  0  0  0  0  0  0  0  0  0
    9.4601   -3.6770    0.0000 C   0  0  0  0  0  0  0  0  0  0  0  0
   10.7657   -4.4375    0.0000 C   0  0  0  0  0  0  0  0  0  0  0  0
   12.0666   -3.6920    0.0000 C   0  0  0  0  0  0  0  0  0  0  0  0
    8.1569   -4.4197    0.0000 C   0  0  0  0  0  0  0  0  0  0  0  0
  6  7  1  0  0  0  0
  1  4  1  0  0  0  0
  2 14  1  0  0  0  0
  2 15  2  0  0  0  0
  7  8  1  0  0  0  0
 14 16  1  0  0  0  0
  4 17  1  0  0  0  0
  8  9  1  0  0  0  0
 17 18  1  0  0  0  0
  3  5  1  0  0  0  0
 17 19  2  0  0  0  0
  8 10  2  0  0  0  0
 17 20  2  0  0  0  0
  1  3  1  1  0  0  0
 18 21  2  0  0  0  0
  9 11  1  0  0  0  0
 21 22  1  0  0  0  0
  5  6  1  0  0  0  0
 22 23  2  0  0  0  0
  1  2  1  0  0  0  0
 23 24  1  0  0  0  0
 11 12  2  0  0  0  0
 24 25  2  0  0  0  0
 25 18  1  0  0  0  0
 11 13  1  0  0  0  0
 23 26  1  0  0  0  0
M  CHG  2  11   1  13  -1
M  END
> <Value>
3.963371104637839

> <Relation>
=

> <SourceURI>
mol:CHEMBL575400

$$$$

Generated by Molecular Materials Informatics

 25 25  0  0  0  0  0  0  0  0999 V2000
    3.3042    2.3227    0.0000 C   0  0  0  0  0  0  0  0  0  0  0  0
    4.6031    3.0727    0.0000 C   0  0  0  0  0  0  0  0  0  0  0  0
    2.0052    3.0727    0.0000 C   0  0  0  0  0  0  0  0  0  0  0  0
    3.3042    0.8227    0.0000 N   0  0  0  0  0  0  0  0  0  0  0  0
    0.7061    2.3227    0.0000 C   0  0  0  0  0  0  0  0  0  0  0  0
   -0.5927    3.0727    0.0000 C   0  0  0  0  0  0  0  0  0  0  0  0
   -1.8918    2.3227    0.0000 N   0  0  0  0  0  0  0  0  0  0  0  0
    2.0052    0.0728    0.0000 C   0  0  0  0  0  0  0  0  0  0  0  0
    2.0052   -1.4272    0.0000 C   0  0  0  0  0  0  0  0  0  0  0  0
    0.7061    0.8227    0.0000 O   0  0  0  0  0  0  0  0  0  0  0  0
   -3.1909    3.0727    0.0000 C   0  0  0  0  0  0  0  0  0  0  0  0
   -4.4899    2.3227    0.0000 N   0  0  0  0  0  0  0  0  0  0  0  0
   -3.1909    4.5726    0.0000 N   0  0  0  0  0  0  0  0  0  0  0  0
   -5.7888    3.0727    0.0000 N   0  3  0  0  0  0  0  0  0  0  0  0
   -7.0969    2.3270    0.0000 O   0  0  0  0  0  0  0  0  0  0  0  0
   -5.7980    4.5770    0.0000 O   0  5  0  0  0  0  0  0  0  0  0  0
    5.9081    2.3241    0.0000 N   0  0  0  0  0  0  0  0  0  0  0  0
    4.6091    4.5741    0.0000 O   0  0  0  0  0  0  0  0  0  0  0  0
    7.2050    3.0779    0.0000 O   0  0  0  0  0  0  0  0  0  0  0  0
    0.7061   -2.1772    0.0000 C   0  0  0  0  0  0  0  0  0  0  0  0
   -0.5918   -1.4216    0.0000 C   0  0  0  0  0  0  0  0  0  0  0  0
   -1.8900   -2.1703    0.0000 C   0  0  0  0  0  0  0  0  0  0  0  0
   -1.8907   -3.6719    0.0000 C   0  0  0  0  0  0  0  0  0  0  0  0
   -0.5826   -4.4215    0.0000 C   0  0  0  0  0  0  0  0  0  0  0  0
    0.7101   -3.6684    0.0000 C   0  0  0  0  0  0  0  0  0  0  0  0
 11 13  2  0  0  0  0
  6  7  1  0  0  0  0
 12 14  1  0  0  0  0
  1  4  1  0  0  0  0
  4  8  1  0  0  0  0
 14 15  2  0  0  0  0
 14 16  1  0  0  0  0
  8  9  1  0  0  0  0
  2 17  1  0  0  0  0
  2 18  2  0  0  0  0
  3  5  1  0  0  0  0
 17 19  1  0  0  0  0
  8 10  2  0  0  0  0
  9 20  1  0  0  0  0
  1  3  1  1  0  0  0
 20 21  2  0  0  0  0
  7 11  1  0  0  0  0
 21 22  1  0  0  0  0
  5  6  1  0  0  0  0
 22 23  2  0  0  0  0
 11 12  1  0  0  0  0
 23 24  1  0  0  0  0
  1  2  1  0  0  0  0
 24 25  2  0  0  0  0
 25 20  1  0  0  0  0
M  CHG  2  14   1  16  -1
M  END
> <Value>
2.7792122238341244

> <Relation>
=

> <SourceURI>
mol:CHEMBL584358

$$$$

Generated by Molecular Materials Informatics

 26 26  0  0  0  0  0  0  0  0999 V2000
   15.7583    2.6712    0.0000 C   0  0  0  0  0  0  0  0  0  0  0  0
   17.0574    3.4211    0.0000 C   0  0  0  0  0  0  0  0  0  0  0  0
   14.4595    3.4211    0.0000 C   0  0  0  0  0  0  0  0  0  0  0  0
   15.7583    1.1712    0.0000 N   0  0  0  0  0  0  0  0  0  0  0  0
   13.1604    2.6712    0.0000 C   0  0  0  0  0  0  0  0  0  0  0  0
   11.8614    3.4211    0.0000 C   0  0  0  0  0  0  0  0  0  0  0  0
   10.5623    2.6712    0.0000 N   0  0  0  0  0  0  0  0  0  0  0  0
   14.4595    0.4212    0.0000 C   0  0  0  0  0  0  0  0  0  0  0  0
   14.4595   -1.0787    0.0000 C   0  0  0  0  0  0  0  0  0  0  0  0
   13.1604    1.1712    0.0000 O   0  0  0  0  0  0  0  0  0  0  0  0
    9.2634    3.4211    0.0000 C   0  0  0  0  0  0  0  0  0  0  0  0
    7.9644    2.6712    0.0000 N   0  0  0  0  0  0  0  0  0  0  0  0
    9.2634    4.9211    0.0000 N   0  0  0  0  0  0  0  0  0  0  0  0
    6.6653    3.4211    0.0000 N   0  3  0  0  0  0  0  0  0  0  0  0
    5.3572    2.6754    0.0000 O   0  0  0  0  0  0  0  0  0  0  0  0
    6.6562    4.9253    0.0000 O   0  5  0  0  0  0  0  0  0  0  0  0
   18.3622    2.6726    0.0000 N   0  0  0  0  0  0  0  0  0  0  0  0
   17.0634    4.9226    0.0000 O   0  0  0  0  0  0  0  0  0  0  0  0
   19.6591    3.4262    0.0000 O   0  0  0  0  0  0  0  0  0  0  0  0
   15.7583   -1.8287    0.0000 C   0  0  0  0  0  0  0  0  0  0  0  0
   15.7583   -3.3286    0.0000 C   0  0  0  0  0  0  0  0  0  0  0  0
   14.4551   -4.0754    0.0000 C   0  0  0  0  0  0  0  0  0  0  0  0
   14.4545   -5.5739    0.0000 C   0  0  0  0  0  0  0  0  0  0  0  0
   15.7545   -6.3253    0.0000 C   0  0  0  0  0  0  0  0  0  0  0  0
   17.0577   -5.5673    0.0000 C   0  0  0  0  0  0  0  0  0  0  0  0
   17.0521   -4.0712    0.0000 C   0  0  0  0  0  0  0  0  0  0  0  0
  6  7  1  0  0  0  0
 12 14  1  0  0  0  0
  1  4  1  0  0  0  0
  4  8  1  0  0  0  0
 14 15  2  0  0  0  0
 14 16  1  0  0  0  0
  8  9  1  0  0  0  0
  2 17  1  0  0  0  0
  2 18  2  0  0  0  0
  3  5  1  0  0  0  0
 17 19  1  0  0  0  0
  8 10  2  0  0  0  0
  9 20  1  0  0  0  0
  1  3  1  1  0  0  0
 20 21  1  0  0  0  0
  7 11  1  0  0  0  0
 21 22  2  0  0  0  0
  5  6  1  0  0  0  0
 22 23  1  0  0  0  0
 11 12  1  0  0  0  0
 23 24  2  0  0  0  0
  1  2  1  0  0  0  0
 24 25  1  0  0  0  0
 11 13  2  0  0  0  0
 25 26  2  0  0  0  0
 26 21  1  0  0  0  0
M  CHG  2  14   1  16  -1
M  END
> <Value>
3.479123618311658

> <Relation>
=

> <SourceURI>
mol:CHEMBL573367

$$$$

Generated by Molecular Materials Informatics

 26 26  0  0  0  0  0  0  0  0999 V2000
    3.6792   -4.0706    0.0000 C   0  0  0  0  0  0  0  0  0  0  0  0
    4.9781   -3.3206    0.0000 C   0  0  0  0  0  0  0  0  0  0  0  0
    2.3802   -3.3206    0.0000 C   0  0  0  0  0  0  0  0  0  0  0  0
    3.6792   -5.5705    0.0000 N   0  0  0  0  0  0  0  0  0  0  0  0
    1.0811   -4.0706    0.0000 C   0  0  0  0  0  0  0  0  0  0  0  0
   -0.2177   -3.3206    0.0000 C   0  0  0  0  0  0  0  0  0  0  0  0
   -1.5168   -4.0706    0.0000 N   0  0  0  0  0  0  0  0  0  0  0  0
    2.3802   -6.3205    0.0000 C   0  0  0  0  0  0  0  0  0  0  0  0
    2.3802   -7.8205    0.0000 C   0  0  0  0  0  0  0  0  0  0  0  0
    1.0811   -5.5705    0.0000 O   0  0  0  0  0  0  0  0  0  0  0  0
   -2.8159   -3.3206    0.0000 C   0  0  0  0  0  0  0  0  0  0  0  0
   -4.1149   -4.0706    0.0000 N   0  0  0  0  0  0  0  0  0  0  0  0
   -2.8159   -1.8206    0.0000 N   0  0  0  0  0  0  0  0  0  0  0  0
   -5.4138   -3.3206    0.0000 N   0  3  0  0  0  0  0  0  0  0  0  0
   -6.7219   -4.0662    0.0000 O   0  0  0  0  0  0  0  0  0  0  0  0
   -5.4230   -1.8163    0.0000 O   0  5  0  0  0  0  0  0  0  0  0  0
    6.2831   -4.0691    0.0000 N   0  0  0  0  0  0  0  0  0  0  0  0
    4.9841   -1.8192    0.0000 O   0  0  0  0  0  0  0  0  0  0  0  0
    7.5800   -3.3153    0.0000 O   0  0  0  0  0  0  0  0  0  0  0  0
    3.6792   -8.5704    0.0000 C   0  0  0  0  0  0  0  0  0  0  0  0
    3.6792  -10.0704    0.0000 C   0  0  0  0  0  0  0  0  0  0  0  0
    2.3760  -10.8169    0.0000 C   0  0  0  0  0  0  0  0  0  0  0  0
    2.3753  -12.3156    0.0000 C   0  0  0  0  0  0  0  0  0  0  0  0
    3.6752  -13.0670    0.0000 C   0  0  0  0  0  0  0  0  0  0  0  0
    4.9786  -12.3090    0.0000 C   0  0  0  0  0  0  0  0  0  0  0  0
    4.9728  -10.8129    0.0000 C   0  0  0  0  0  0  0  0  0  0  0  0
  6  7  1  0  0  0  0
 12 14  1  0  0  0  0
  1  4  1  0  0  0  0
  4  8  1  0  0  0  0
 14 15  2  0  0  0  0
 14 16  1  0  0  0  0
  8  9  1  0  0  0  0
  2 17  1  0  0  0  0
  2 18  2  0  0  0  0
  3  5  1  0  0  0  0
 17 19  1  0  0  0  0
  8 10  2  0  0  0  0
  9 20  2  0  0  0  0
  1  3  1  1  0  0  0
 20 21  1  0  0  0  0
  7 11  1  0  0  0  0
 21 22  2  0  0  0  0
  5  6  1  0  0  0  0
 22 23  1  0  0  0  0
 11 12  1  0  0  0  0
 23 24  2  0  0  0  0
  1  2  1  0  0  0  0
 24 25  1  0  0  0  0
 11 13  2  0  0  0  0
 25 26  2  0  0  0  0
 26 21  1  0  0  0  0
M  CHG  2  14   1  16  -1
M  END
> <Value>
2.9965394678904933

> <Relation>
=

> <SourceURI>
mol:CHEMBL575654

$$$$

Generated by Molecular Materials Informatics

 24 24  0  0  0  0  0  0  0  0999 V2000
   16.1333   -4.7358    0.0000 C   0  0  0  0  0  0  0  0  0  0  0  0
   17.4324   -3.9858    0.0000 C   0  0  0  0  0  0  0  0  0  0  0  0
   14.8345   -3.9858    0.0000 C   0  0  0  0  0  0  0  0  0  0  0  0
   16.1333   -6.2358    0.0000 N   0  0  0  0  0  0  0  0  0  0  0  0
   13.5354   -4.7358    0.0000 C   0  0  0  0  0  0  0  0  0  0  0  0
   12.2364   -3.9858    0.0000 C   0  0  0  0  0  0  0  0  0  0  0  0
   10.9373   -4.7358    0.0000 N   0  0  0  0  0  0  0  0  0  0  0  0
   14.8345   -6.9858    0.0000 C   0  0  0  0  0  0  0  0  0  0  0  0
   14.8345   -8.4857    0.0000 C   0  0  0  0  0  0  0  0  0  0  0  0
   13.5354   -6.2358    0.0000 O   0  0  0  0  0  0  0  0  0  0  0  0
    9.6384   -3.9858    0.0000 C   0  0  0  0  0  0  0  0  0  0  0  0
    8.3394   -4.7358    0.0000 N   0  0  0  0  0  0  0  0  0  0  0  0
    9.6384   -2.4859    0.0000 N   0  0  0  0  0  0  0  0  0  0  0  0
    7.0403   -3.9858    0.0000 N   0  3  0  0  0  0  0  0  0  0  0  0
    5.7322   -4.7316    0.0000 O   0  0  0  0  0  0  0  0  0  0  0  0
    7.0312   -2.4817    0.0000 O   0  5  0  0  0  0  0  0  0  0  0  0
   18.7372   -4.7344    0.0000 N   0  0  0  0  0  0  0  0  0  0  0  0
   17.4384   -2.4844    0.0000 O   0  0  0  0  0  0  0  0  0  0  0  0
   20.0341   -3.9808    0.0000 O   0  0  0  0  0  0  0  0  0  0  0  0
   13.5292   -9.2290    0.0000 C   0  0  0  0  0  0  0  0  0  0  0  0
   13.5285  -10.7275    0.0000 C   0  0  0  0  0  0  0  0  0  0  0  0
   14.8285  -11.4789    0.0000 C   0  0  0  0  0  0  0  0  0  0  0  0
   16.1319  -10.7209    0.0000 C   0  0  0  0  0  0  0  0  0  0  0  0
   16.1261   -9.2248    0.0000 C   0  0  0  0  0  0  0  0  0  0  0  0
  1  2  1  0  0  0  0
 11 13  2  0  0  0  0
  6  7  1  0  0  0  0
 12 14  1  0  0  0  0
  1  4  1  0  0  0  0
  4  8  1  0  0  0  0
 14 15  2  0  0  0  0
 14 16  1  0  0  0  0
  8  9  1  0  0  0  0
  2 17  1  0  0  0  0
  2 18  2  0  0  0  0
  3  5  1  0  0  0  0
 17 19  1  0  0  0  0
  8 10  2  0  0  0  0
  9 20  2  0  0  0  0
  1  3  1  1  0  0  0
 20 21  1  0  0  0  0
  7 11  1  0  0  0  0
 21 22  2  0  0  0  0
  5  6  1  0  0  0  0
 22 23  1  0  0  0  0
 11 12  1  0  0  0  0
 23 24  2  0  0  0  0
 24  9  1  0  0  0  0
M  CHG  2  14   1  16  -1
M  END
> <Value>
4.09366495819491

> <Relation>
=

> <SourceURI>
mol:CHEMBL583058

$$$$

Generated by Molecular Materials Informatics

 25 25  0  0  0  0  0  0  0  0999 V2000
    3.4625  -12.5733    0.0000 C   0  0  0  0  0  0  0  0  0  0  0  0
    4.7616  -11.8233    0.0000 C   0  0  0  0  0  0  0  0  0  0  0  0
    2.1635  -11.8233    0.0000 C   0  0  0  0  0  0  0  0  0  0  0  0
    3.4625  -14.0733    0.0000 N   0  0  0  0  0  0  0  0  0  0  0  0
    0.8646  -12.5733    0.0000 C   0  0  0  0  0  0  0  0  0  0  0  0
   -0.4344  -11.8233    0.0000 C   0  0  0  0  0  0  0  0  0  0  0  0
   -1.7335  -12.5733    0.0000 N   0  0  0  0  0  0  0  0  0  0  0  0
    2.1635  -14.8233    0.0000 C   0  0  0  0  0  0  0  0  0  0  0  0
    2.1635  -16.3232    0.0000 C   0  0  0  0  0  0  0  0  0  0  0  0
    0.8646  -14.0733    0.0000 O   0  0  0  0  0  0  0  0  0  0  0  0
   -3.0326  -11.8233    0.0000 C   0  0  0  0  0  0  0  0  0  0  0  0
   -4.3314  -12.5733    0.0000 N   0  0  0  0  0  0  0  0  0  0  0  0
   -3.0326  -10.3234    0.0000 N   0  0  0  0  0  0  0  0  0  0  0  0
   -5.6305  -11.8233    0.0000 N   0  3  0  0  0  0  0  0  0  0  0  0
   -6.9386  -12.5691    0.0000 O   0  0  0  0  0  0  0  0  0  0  0  0
   -5.6396  -10.3192    0.0000 O   0  5  0  0  0  0  0  0  0  0  0  0
    6.0664  -12.5719    0.0000 N   0  0  0  0  0  0  0  0  0  0  0  0
    4.7674  -10.3219    0.0000 O   0  0  0  0  0  0  0  0  0  0  0  0
    7.3633  -11.8183    0.0000 O   0  0  0  0  0  0  0  0  0  0  0  0
    0.8582  -17.0665    0.0000 C   0  0  0  0  0  0  0  0  0  0  0  0
    0.8577  -18.5650    0.0000 C   0  0  0  0  0  0  0  0  0  0  0  0
    2.1577  -19.3164    0.0000 C   0  0  0  0  0  0  0  0  0  0  0  0
    3.4609  -18.5584    0.0000 C   0  0  0  0  0  0  0  0  0  0  0  0
    3.4553  -17.0623    0.0000 C   0  0  0  0  0  0  0  0  0  0  0  0
    4.7512  -16.3074    0.0000 Cl  0  0  0  0  0  0  0  0  0  0  0  0
 11 13  2  0  0  0  0
  6  7  1  0  0  0  0
 12 14  1  0  0  0  0
  1  4  1  0  0  0  0
  4  8  1  0  0  0  0
 14 15  2  0  0  0  0
 14 16  1  0  0  0  0
  8  9  1  0  0  0  0
  2 17  1  0  0  0  0
  2 18  2  0  0  0  0
  3  5  1  0  0  0  0
 17 19  1  0  0  0  0
  8 10  2  0  0  0  0
  9 20  2  0  0  0  0
  1  3  1  1  0  0  0
 20 21  1  0  0  0  0
  7 11  1  0  0  0  0
 21 22  2  0  0  0  0
  5  6  1  0  0  0  0
 22 23  1  0  0  0  0
 11 12  1  0  0  0  0
 23 24  2  0  0  0  0
 24  9  1  0  0  0  0
  1  2  1  0  0  0  0
 24 25  1  0  0  0  0
M  CHG  2  14   1  16  -1
M  END
> <Value>
4.690369832574101

> <Relation>
=

> <SourceURI>
mol:CHEMBL574756

$$$$

Generated by Molecular Materials Informatics

 25 25  0  0  0  0  0  0  0  0999 V2000
   16.1958  -12.6983    0.0000 C   0  0  0  0  0  0  0  0  0  0  0  0
   17.4949  -11.9483    0.0000 C   0  0  0  0  0  0  0  0  0  0  0  0
   14.8970  -11.9483    0.0000 C   0  0  0  0  0  0  0  0  0  0  0  0
   16.1958  -14.1983    0.0000 N   0  0  0  0  0  0  0  0  0  0  0  0
   13.5979  -12.6983    0.0000 C   0  0  0  0  0  0  0  0  0  0  0  0
   12.2989  -11.9483    0.0000 C   0  0  0  0  0  0  0  0  0  0  0  0
   10.9998  -12.6983    0.0000 N   0  0  0  0  0  0  0  0  0  0  0  0
   14.8970  -14.9483    0.0000 C   0  0  0  0  0  0  0  0  0  0  0  0
   14.8970  -16.4482    0.0000 C   0  0  0  0  0  0  0  0  0  0  0  0
   13.5979  -14.1983    0.0000 O   0  0  0  0  0  0  0  0  0  0  0  0
    9.7009  -11.9483    0.0000 C   0  0  0  0  0  0  0  0  0  0  0  0
    8.4019  -12.6983    0.0000 N   0  0  0  0  0  0  0  0  0  0  0  0
    9.7009  -10.4484    0.0000 N   0  0  0  0  0  0  0  0  0  0  0  0
    7.1028  -11.9483    0.0000 N   0  3  0  0  0  0  0  0  0  0  0  0
    5.7947  -12.6941    0.0000 O   0  0  0  0  0  0  0  0  0  0  0  0
    7.0937  -10.4442    0.0000 O   0  5  0  0  0  0  0  0  0  0  0  0
   18.7998  -12.6969    0.0000 N   0  0  0  0  0  0  0  0  0  0  0  0
   17.5009  -10.4469    0.0000 O   0  0  0  0  0  0  0  0  0  0  0  0
   20.0966  -11.9433    0.0000 O   0  0  0  0  0  0  0  0  0  0  0  0
   13.5917  -17.1915    0.0000 C   0  0  0  0  0  0  0  0  0  0  0  0
   13.5910  -18.6900    0.0000 C   0  0  0  0  0  0  0  0  0  0  0  0
   14.8910  -19.4414    0.0000 C   0  0  0  0  0  0  0  0  0  0  0  0
   16.1944  -18.6834    0.0000 C   0  0  0  0  0  0  0  0  0  0  0  0
   16.1886  -17.1873    0.0000 C   0  0  0  0  0  0  0  0  0  0  0  0
   17.4847  -16.4324    0.0000 I   0  0  0  0  0  0  0  0  0  0  0  0
 11 13  2  0  0  0  0
  6  7  1  0  0  0  0
 12 14  1  0  0  0  0
  1  4  1  0  0  0  0
  4  8  1  0  0  0  0
 14 15  2  0  0  0  0
 14 16  1  0  0  0  0
  8  9  1  0  0  0  0
  2 17  1  0  0  0  0
  2 18  2  0  0  0  0
  3  5  1  0  0  0  0
 17 19  1  0  0  0  0
  8 10  2  0  0  0  0
  9 20  2  0  0  0  0
  1  3  1  1  0  0  0
 20 21  1  0  0  0  0
  7 11  1  0  0  0  0
 21 22  2  0  0  0  0
  5  6  1  0  0  0  0
 22 23  1  0  0  0  0
 11 12  1  0  0  0  0
 23 24  2  0  0  0  0
 24  9  1  0  0  0  0
  1  2  1  0  0  0  0
 24 25  1  0  0  0  0
M  CHG  2  14   1  16  -1
M  END
> <Value>
4.6595558851598815

> <Relation>
=

> <SourceURI>
mol:CHEMBL574757

$$$$

Generated by Molecular Materials Informatics

 25 25  0  0  0  0  0  0  0  0999 V2000
    3.5292  -21.0151    0.0000 C   0  0  0  0  0  0  0  0  0  0  0  0
    4.8281  -20.2651    0.0000 C   0  0  0  0  0  0  0  0  0  0  0  0
    2.2302  -20.2651    0.0000 C   0  0  0  0  0  0  0  0  0  0  0  0
    3.5292  -22.5150    0.0000 N   0  0  0  0  0  0  0  0  0  0  0  0
    0.9311  -21.0151    0.0000 C   0  0  0  0  0  0  0  0  0  0  0  0
   -0.3677  -20.2651    0.0000 C   0  0  0  0  0  0  0  0  0  0  0  0
   -1.6668  -21.0151    0.0000 N   0  0  0  0  0  0  0  0  0  0  0  0
    2.2302  -23.2650    0.0000 C   0  0  0  0  0  0  0  0  0  0  0  0
    2.2302  -24.7649    0.0000 C   0  0  0  0  0  0  0  0  0  0  0  0
    0.9311  -22.5150    0.0000 O   0  0  0  0  0  0  0  0  0  0  0  0
   -2.9659  -20.2651    0.0000 C   0  0  0  0  0  0  0  0  0  0  0  0
   -4.2649  -21.0151    0.0000 N   0  0  0  0  0  0  0  0  0  0  0  0
   -2.9659  -18.7651    0.0000 N   0  0  0  0  0  0  0  0  0  0  0  0
   -5.5638  -20.2651    0.0000 N   0  3  0  0  0  0  0  0  0  0  0  0
   -6.8719  -21.0107    0.0000 O   0  0  0  0  0  0  0  0  0  0  0  0
   -5.5730  -18.7608    0.0000 O   0  5  0  0  0  0  0  0  0  0  0  0
    6.1331  -21.0136    0.0000 N   0  0  0  0  0  0  0  0  0  0  0  0
    4.8341  -18.7637    0.0000 O   0  0  0  0  0  0  0  0  0  0  0  0
    7.4300  -20.2598    0.0000 O   0  0  0  0  0  0  0  0  0  0  0  0
    0.9249  -25.5080    0.0000 C   0  0  0  0  0  0  0  0  0  0  0  0
    0.9244  -27.0067    0.0000 C   0  0  0  0  0  0  0  0  0  0  0  0
    2.2244  -27.7581    0.0000 C   0  0  0  0  0  0  0  0  0  0  0  0
    3.5276  -27.0002    0.0000 C   0  0  0  0  0  0  0  0  0  0  0  0
    3.5218  -25.5040    0.0000 C   0  0  0  0  0  0  0  0  0  0  0  0
    4.8179  -24.7489    0.0000 C   0  0  0  0  0  0  0  0  0  0  0  0
 11 13  2  0  0  0  0
  6  7  1  0  0  0  0
 12 14  1  0  0  0  0
  1  4  1  0  0  0  0
  4  8  1  0  0  0  0
 14 15  2  0  0  0  0
 14 16  1  0  0  0  0
  8  9  1  0  0  0  0
  2 17  1  0  0  0  0
  2 18  2  0  0  0  0
  3  5  1  0  0  0  0
 17 19  1  0  0  0  0
  8 10  2  0  0  0  0
  9 20  2  0  0  0  0
  1  3  1  1  0  0  0
 20 21  1  0  0  0  0
  7 11  1  0  0  0  0
 21 22  2  0  0  0  0
  5  6  1  0  0  0  0
 22 23  1  0  0  0  0
 11 12  1  0  0  0  0
 23 24  2  0  0  0  0
 24  9  1  0  0  0  0
  1  2  1  0  0  0  0
 24 25  1  0  0  0  0
M  CHG  2  14   1  16  -1
M  END
> <Value>
3.6546262694409117

> <Relation>
=

> <SourceURI>
mol:CHEMBL573130

$$$$

Generated by Molecular Materials Informatics

 27 29  0  0  0  0  0  0  0  0999 V2000
    6.0741   -1.0604    0.0000 C   0  0  0  0  0  0  0  0  0  0  0  0
    6.0741   -2.5755    0.0000 C   0  0  0  0  0  0  0  0  0  0  0  0
    4.7559   -0.2877    0.0000 C   0  0  0  0  0  0  0  0  0  0  0  0
    7.3696   -0.3104    0.0000 N   0  3  0  0  0  0  0  0  0  0  0  0
    4.7559   -3.3255    0.0000 O   0  0  0  0  0  0  0  0  0  0  0  0
    3.4605   -1.0604    0.0000 C   0  0  0  0  0  0  0  0  0  0  0  0
    3.4528   -2.5755    0.0000 C   0  0  0  0  0  0  0  0  0  0  0  0
    6.0514   -5.5832    0.0000 N   0  3  0  0  0  0  0  0  0  0  0  0
    7.3619   -3.3255    0.0000 C   0  0  0  0  0  0  0  0  0  0  0  0
    7.3468   -4.8332    0.0000 C   0  0  0  0  0  0  0  0  0  0  0  0
    2.1574   -3.3105    0.0000 C   0  0  0  0  0  0  0  0  0  0  0  0
    8.6650   -1.0604    0.0000 O   0  5  0  0  0  0  0  0  0  0  0  0
    4.7559   -4.8255    0.0000 O   0  5  0  0  0  0  0  0  0  0  0  0
    0.8619   -5.5605    0.0000 C   0  0  0  0  0  0  0  0  0  0  0  0
    4.7559    1.2123    0.0000 O   0  0  0  0  0  0  0  0  0  0  0  0
    7.3696    1.1896    0.0000 O   0  0  0  0  0  0  0  0  0  0  0  0
    6.0437   -7.0832    0.0000 O   0  0  0  0  0  0  0  0  0  0  0  0
    2.1574   -4.8105    0.0000 C   0  0  0  0  0  0  0  0  0  0  0  0
   -0.4486   -4.8105    0.0000 O   0  0  0  0  0  0  0  0  0  0  0  0
    2.1574   -0.3104    0.0000 C   0  0  0  0  0  0  0  0  0  0  0  0
    0.8619   -7.0604    0.0000 O   0  0  0  0  0  0  0  0  0  0  0  0
    8.6574   -2.5832    0.0000 C   0  0  0  0  0  0  0  0  0  0  0  0
    0.8619   -2.5604    0.0000 C   0  0  0  0  0  0  0  0  0  0  0  0
    8.6423   -5.5832    0.0000 C   0  0  0  0  0  0  0  0  0  0  0  0
    0.8619   -1.0604    0.0000 C   0  0  0  0  0  0  0  0  0  0  0  0
    9.9528   -3.3332    0.0000 C   0  0  0  0  0  0  0  0  0  0  0  0
    9.9528   -4.8332    0.0000 C   0  0  0  0  0  0  0  0  0  0  0  0
  2  1  2  0  0  0  0
  3  1  1  0  0  0  0
  4  1  1  0  0  0  0
  5  2  1  0  0  0  0
  6  3  1  0  0  0  0
  7  6  1  0  0  0  0
  8 10  1  0  0  0  0
  9  2  1  0  0  0  0
 10  9  2  0  0  0  0
 11  7  2  0  0  0  0
 12  4  1  0  0  0  0
 13  8  1  0  0  0  0
 14 18  1  0  0  0  0
 15  3  2  0  0  0  0
 16  4  2  0  0  0  0
 17  8  2  0  0  0  0
 18 11  1  0  0  0  0
 19 14  2  0  0  0  0
 20  6  2  0  0  0  0
 21 14  1  0  0  0  0
 22  9  1  0  0  0  0
 23 25  2  0  0  0  0
 24 10  1  0  0  0  0
 25 20  1  0  0  0  0
 26 22  2  0  0  0  0
 27 26  1  0  0  0  0
  7  5  1  0  0  0  0
 11 23  1  0  0  0  0
 24 27  2  0  0  0  0
M  CHG  4   4   1   8   1  12  -1  13  -1
M  END
> <Value>
4.6020599913279625

> <Relation>
=

> <SourceURI>
mol:CHEMBL125622

$$$$

Generated by Molecular Materials Informatics

 26 28  0  0  0  0  0  0  0  0999 V2000
    0.8617  -12.5127    0.0000 C   0  0  0  0  0  0  0  0  0  0  0  0
    0.8617  -14.0139    0.0000 C   0  0  0  0  0  0  0  0  0  0  0  0
    2.1580  -14.7603    0.0000 C   0  0  0  0  0  0  0  0  0  0  0  0
    2.1580  -11.7585    0.0000 C   0  0  0  0  0  0  0  0  0  0  0  0
    3.4543  -12.5127    0.0000 C   0  0  0  0  0  0  0  0  0  0  0  0
    3.4561  -14.0139    0.0000 C   0  0  0  0  0  0  0  0  0  0  0  0
    4.7509  -14.7620    0.0000 C   0  0  0  0  0  0  0  0  0  0  0  0
    6.0517  -14.0105    0.0000 N   0  0  0  0  0  0  0  0  0  0  0  0
    6.0499  -12.5094    0.0000 C   0  0  0  0  0  0  0  0  0  0  0  0
    4.7471  -11.7603    0.0000 C   0  0  0  0  0  0  0  0  0  0  0  0
    7.3507  -11.7625    0.0000 C   0  0  0  0  0  0  0  0  0  0  0  0
    8.6515  -12.5087    0.0000 N   0  0  0  0  0  0  0  0  0  0  0  0
    7.3503  -10.2615    0.0000 O   0  0  0  0  0  0  0  0  0  0  0  0
    9.9447  -11.7618    0.0000 C   0  0  0  0  0  0  0  0  0  0  0  0
   11.2459  -12.5080    0.0000 C   0  0  0  0  0  0  0  0  0  0  0  0
   12.5463  -11.7610    0.0000 N   0  0  0  0  0  0  0  0  0  0  0  0
   11.2462  -14.0092    0.0000 O   0  0  0  0  0  0  0  0  0  0  0  0
   13.8473  -12.5073    0.0000 O   0  0  0  0  0  0  0  0  0  0  0  0
    9.9443  -10.2607    0.0000 C   0  0  0  0  0  0  0  0  0  0  0  0
   11.2450   -9.5063    0.0000 C   0  0  0  0  0  0  0  0  0  0  0  0
   12.5465  -10.2573    0.0000 C   0  0  0  0  0  0  0  0  0  0  0  0
   13.8462   -9.5040    0.0000 C   0  0  0  0  0  0  0  0  0  0  0  0
   13.8441   -7.9988    0.0000 C   0  0  0  0  0  0  0  0  0  0  0  0
   12.5311   -7.2500    0.0000 C   0  0  0  0  0  0  0  0  0  0  0  0
   11.2366   -8.0075    0.0000 C   0  0  0  0  0  0  0  0  0  0  0  0
   15.1347   -7.2476    0.0000 O   0  0  0  0  0  0  0  0  0  0  0  0
  1  2  2  0  0  0  0
 11 13  2  0  0  0  0
  1  4  1  0  0  0  0
 14 12  1  1  0  0  0
  2  3  1  0  0  0  0
 14 15  1  0  0  0  0
  3  6  2  0  0  0  0
 15 16  1  0  0  0  0
  5  4  2  0  0  0  0
 15 17  2  0  0  0  0
  5 10  1  0  0  0  0
 16 18  1  0  0  0  0
  6  7  1  0  0  0  0
 14 19  1  0  0  0  0
  7  8  1  0  0  0  0
 19 20  1  0  0  0  0
  9  8  1  0  0  0  0
 20 21  2  0  0  0  0
  9 10  1  0  0  0  0
 21 22  1  0  0  0  0
  5  6  1  0  0  0  0
 22 23  2  0  0  0  0
  9 11  1  1  0  0  0
 23 24  1  0  0  0  0
 24 25  2  0  0  0  0
 25 20  1  0  0  0  0
 11 12  1  0  0  0  0
 23 26  1  0  0  0  0
M  END
> <Value>
5.027334407733889

> <Relation>
=

> <SourceURI>
mol:CHEMBL1830653

$$$$

Generated by Molecular Materials Informatics

 22 23  0  0  0  0  0  0  0  0999 V2000
   10.1462  -11.9342    0.0000 C   0  0  0  0  0  0  0  0  0  0  0  0
   10.1462  -13.4353    0.0000 C   0  0  0  0  0  0  0  0  0  0  0  0
   11.4427  -14.1820    0.0000 C   0  0  0  0  0  0  0  0  0  0  0  0
   11.4427  -11.1801    0.0000 C   0  0  0  0  0  0  0  0  0  0  0  0
   12.7392  -11.9342    0.0000 C   0  0  0  0  0  0  0  0  0  0  0  0
   12.7411  -13.4353    0.0000 C   0  0  0  0  0  0  0  0  0  0  0  0
   14.0357  -14.1838    0.0000 C   0  0  0  0  0  0  0  0  0  0  0  0
   15.3370  -13.4320    0.0000 N   0  0  0  0  0  0  0  0  0  0  0  0
   15.3350  -11.9310    0.0000 C   0  0  0  0  0  0  0  0  0  0  0  0
   14.0319  -11.1817    0.0000 C   0  0  0  0  0  0  0  0  0  0  0  0
   16.6356  -11.1839    0.0000 C   0  0  0  0  0  0  0  0  0  0  0  0
   17.9369  -11.9302    0.0000 N   0  0  0  0  0  0  0  0  0  0  0  0
   16.6353   -9.6831    0.0000 O   0  0  0  0  0  0  0  0  0  0  0  0
   19.2299  -11.1832    0.0000 C   0  0  0  0  0  0  0  0  0  0  0  0
   20.5310  -11.9297    0.0000 C   0  0  0  0  0  0  0  0  0  0  0  0
   21.8316  -11.1826    0.0000 N   0  0  0  0  0  0  0  0  0  0  0  0
   20.5313  -13.4306    0.0000 O   0  0  0  0  0  0  0  0  0  0  0  0
   23.1329  -11.9290    0.0000 O   0  0  0  0  0  0  0  0  0  0  0  0
   19.2295   -9.6823    0.0000 C   0  0  0  0  0  0  0  0  0  0  0  0
   20.5302   -8.9276    0.0000 C   0  0  0  0  0  0  0  0  0  0  0  0
   20.5271   -7.4342    0.0000 S   0  0  0  0  0  0  0  0  0  0  0  0
   21.8189   -6.6848    0.0000 C   0  0  0  0  0  0  0  0  0  0  0  0
  5  6  1  0  0  0  0
  9 11  1  1  0  0  0
 11 12  1  0  0  0  0
  1  2  2  0  0  0  0
 11 13  2  0  0  0  0
  1  4  1  0  0  0  0
 14 12  1  1  0  0  0
  2  3  1  0  0  0  0
 14 15  1  0  0  0  0
  3  6  2  0  0  0  0
 15 16  1  0  0  0  0
  5  4  2  0  0  0  0
 15 17  2  0  0  0  0
  5 10  1  0  0  0  0
 16 18  1  0  0  0  0
  6  7  1  0  0  0  0
 14 19  1  0  0  0  0
  7  8  1  0  0  0  0
 19 20  1  0  0  0  0
  9  8  1  0  0  0  0
 20 21  1  0  0  0  0
  9 10  1  0  0  0  0
 21 22  1  0  0  0  0
M  END
> <Value>
5.05700040663396

> <Relation>
=

> <SourceURI>
mol:CHEMBL1830654

$$$$

Generated by Molecular Materials Informatics

 20 21  0  0  0  0  0  0  0  0999 V2000
   -8.1698  -16.3317    0.0000 C   0  0  0  0  0  0  0  0  0  0  0  0
   -8.1698  -17.8328    0.0000 C   0  0  0  0  0  0  0  0  0  0  0  0
   -6.8733  -18.5795    0.0000 C   0  0  0  0  0  0  0  0  0  0  0  0
   -6.8733  -15.5774    0.0000 C   0  0  0  0  0  0  0  0  0  0  0  0
   -5.5769  -16.3317    0.0000 C   0  0  0  0  0  0  0  0  0  0  0  0
   -5.5749  -17.8328    0.0000 C   0  0  0  0  0  0  0  0  0  0  0  0
   -4.2802  -18.5811    0.0000 C   0  0  0  0  0  0  0  0  0  0  0  0
   -2.9793  -17.8293    0.0000 N   0  0  0  0  0  0  0  0  0  0  0  0
   -2.9810  -16.3285    0.0000 C   0  0  0  0  0  0  0  0  0  0  0  0
   -4.2840  -15.5792    0.0000 C   0  0  0  0  0  0  0  0  0  0  0  0
   -1.6805  -15.5814    0.0000 C   0  0  0  0  0  0  0  0  0  0  0  0
   -0.3794  -16.3277    0.0000 N   0  0  0  0  0  0  0  0  0  0  0  0
   -1.6808  -14.0803    0.0000 O   0  0  0  0  0  0  0  0  0  0  0  0
    0.9139  -15.5807    0.0000 C   0  0  0  0  0  0  0  0  0  0  0  0
    2.2151  -16.3270    0.0000 C   0  0  0  0  0  0  0  0  0  0  0  0
    3.5158  -15.5799    0.0000 N   0  0  0  0  0  0  0  0  0  0  0  0
    2.2155  -17.8281    0.0000 O   0  0  0  0  0  0  0  0  0  0  0  0
    4.8167  -16.3263    0.0000 O   0  0  0  0  0  0  0  0  0  0  0  0
    0.9135  -14.0796    0.0000 C   0  0  0  0  0  0  0  0  0  0  0  0
    2.2142  -13.3251    0.0000 O   0  0  0  0  0  0  0  0  0  0  0  0
  9  8  1  0  0  0  0
  9 10  1  0  0  0  0
  5  6  1  0  0  0  0
  9 11  1  1  0  0  0
 11 12  1  0  0  0  0
  1  2  2  0  0  0  0
 11 13  2  0  0  0  0
  1  4  1  0  0  0  0
 14 12  1  1  0  0  0
  2  3  1  0  0  0  0
 14 15  1  0  0  0  0
  3  6  2  0  0  0  0
 15 16  1  0  0  0  0
  5  4  2  0  0  0  0
 15 17  2  0  0  0  0
  5 10  1  0  0  0  0
 16 18  1  0  0  0  0
  6  7  1  0  0  0  0
 14 19  1  0  0  0  0
  7  8  1  0  0  0  0
 19 20  1  0  0  0  0
M  END
> <Value>
4.395881993807965

> <Relation>
=

> <SourceURI>
mol:CHEMBL1830655

$$$$

Generated by Molecular Materials Informatics

 21 22  0  0  0  0  0  0  0  0999 V2000
    0.2351  -16.1554    0.0000 C   0  0  0  0  0  0  0  0  0  0  0  0
    0.2351  -17.6563    0.0000 C   0  0  0  0  0  0  0  0  0  0  0  0
    1.5316  -18.4032    0.0000 C   0  0  0  0  0  0  0  0  0  0  0  0
    1.5316  -15.4011    0.0000 C   0  0  0  0  0  0  0  0  0  0  0  0
    2.8281  -16.1554    0.0000 C   0  0  0  0  0  0  0  0  0  0  0  0
    2.8301  -17.6563    0.0000 C   0  0  0  0  0  0  0  0  0  0  0  0
    4.1248  -18.4050    0.0000 C   0  0  0  0  0  0  0  0  0  0  0  0
    5.4259  -17.6532    0.0000 N   0  0  0  0  0  0  0  0  0  0  0  0
    5.4240  -16.1520    0.0000 C   0  0  0  0  0  0  0  0  0  0  0  0
    4.1210  -15.4029    0.0000 C   0  0  0  0  0  0  0  0  0  0  0  0
    6.7247  -15.4051    0.0000 C   0  0  0  0  0  0  0  0  0  0  0  0
    8.0258  -16.1514    0.0000 N   0  0  0  0  0  0  0  0  0  0  0  0
    6.7244  -13.9040    0.0000 O   0  0  0  0  0  0  0  0  0  0  0  0
    9.3190  -15.4044    0.0000 C   0  0  0  0  0  0  0  0  0  0  0  0
   10.6203  -16.1507    0.0000 C   0  0  0  0  0  0  0  0  0  0  0  0
   11.9210  -15.4036    0.0000 N   0  0  0  0  0  0  0  0  0  0  0  0
   10.6207  -17.6520    0.0000 O   0  0  0  0  0  0  0  0  0  0  0  0
   13.2221  -16.1500    0.0000 O   0  0  0  0  0  0  0  0  0  0  0  0
    9.3187  -13.9033    0.0000 C   0  0  0  0  0  0  0  0  0  0  0  0
   10.6194  -13.1488    0.0000 O   0  0  0  0  0  0  0  0  0  0  0  0
    8.0243  -13.1580    0.0000 C   0  0  0  0  0  0  0  0  0  0  0  0
  9 10  1  0  0  0  0
  5  6  1  0  0  0  0
  9 11  1  1  0  0  0
 11 12  1  0  0  0  0
  1  2  2  0  0  0  0
 11 13  2  0  0  0  0
  1  4  1  0  0  0  0
 14 12  1  1  0  0  0
  2  3  1  0  0  0  0
 14 15  1  0  0  0  0
  3  6  2  0  0  0  0
 15 16  1  0  0  0  0
  5  4  2  0  0  0  0
 15 17  2  0  0  0  0
  5 10  1  0  0  0  0
 16 18  1  0  0  0  0
  6  7  1  0  0  0  0
 14 19  1  0  0  0  0
  7  8  1  0  0  0  0
 19 20  1  1  0  0  0
  9  8  1  0  0  0  0
 19 21  1  0  0  0  0
M  END
> <Value>
4.3320803146826385

> <Relation>
=

> <SourceURI>
mol:CHEMBL2369772

$$$$

Generated by Molecular Materials Informatics

 21 23  0  0  0  0  0  0  0  0999 V2000
    9.2370  -15.3857    0.0000 C   0  0  0  0  0  0  0  0  0  0  0  0
    9.2370  -16.8866    0.0000 C   0  0  0  0  0  0  0  0  0  0  0  0
   10.5335  -17.6333    0.0000 C   0  0  0  0  0  0  0  0  0  0  0  0
   10.5335  -14.6314    0.0000 C   0  0  0  0  0  0  0  0  0  0  0  0
   11.8300  -15.3857    0.0000 C   0  0  0  0  0  0  0  0  0  0  0  0
   11.8318  -16.8866    0.0000 C   0  0  0  0  0  0  0  0  0  0  0  0
   13.1265  -17.6351    0.0000 C   0  0  0  0  0  0  0  0  0  0  0  0
   14.4278  -16.8833    0.0000 N   0  0  0  0  0  0  0  0  0  0  0  0
   14.4258  -15.3823    0.0000 C   0  0  0  0  0  0  0  0  0  0  0  0
   13.1227  -14.6332    0.0000 C   0  0  0  0  0  0  0  0  0  0  0  0
   15.7263  -14.6354    0.0000 C   0  0  0  0  0  0  0  0  0  0  0  0
   17.0275  -15.3817    0.0000 N   0  0  0  0  0  0  0  0  0  0  0  0
   15.7259  -13.1343    0.0000 O   0  0  0  0  0  0  0  0  0  0  0  0
   16.9794  -16.8744    0.0000 C   0  0  0  0  0  0  0  0  0  0  0  0
   18.3892  -17.3870    0.0000 C   0  0  0  0  0  0  0  0  0  0  0  0
   19.3122  -16.2044    0.0000 C   0  0  0  0  0  0  0  0  0  0  0  0
   18.4715  -14.9621    0.0000 C   0  0  0  0  0  0  0  0  0  0  0  0
   19.2280  -13.6743    0.0000 C   0  0  0  0  0  0  0  0  0  0  0  0
   20.7211  -13.6289    0.0000 N   0  0  0  0  0  0  0  0  0  0  0  0
   21.5067  -14.8988    0.0000 O   0  0  0  0  0  0  0  0  0  0  0  0
   18.4668  -12.3896    0.0000 O   0  0  0  0  0  0  0  0  0  0  0  0
  9 10  1  0  0  0  0
  5  6  1  0  0  0  0
  9 11  1  1  0  0  0
 11 12  1  0  0  0  0
  1  2  2  0  0  0  0
 11 13  2  0  0  0  0
 12 14  1  0  0  0  0
  1  4  1  0  0  0  0
  2  3  1  0  0  0  0
  3  6  2  0  0  0  0
  5  4  2  0  0  0  0
 14 15  1  0  0  0  0
 15 16  1  0  0  0  0
 16 17  1  0  0  0  0
 17 12  1  0  0  0  0
  5 10  1  0  0  0  0
 17 18  1  6  0  0  0
  6  7  1  0  0  0  0
 18 19  1  0  0  0  0
  7  8  1  0  0  0  0
 19 20  1  0  0  0  0
  9  8  1  0  0  0  0
 18 21  2  0  0  0  0
M  END
> <Value>
3.981257904237618

> <Relation>
=

> <SourceURI>
mol:CHEMBL1830657

$$$$

Generated by Molecular Materials Informatics

 32 34  0  0  0  0  0  0  0  0999 V2000
    0.1738  -20.8805    0.0000 C   0  0  0  0  0  0  0  0  0  0  0  0
    0.1738  -22.3878    0.0000 C   0  0  0  0  0  0  0  0  0  0  0  0
    1.4757  -23.1378    0.0000 C   0  0  0  0  0  0  0  0  0  0  0  0
    1.4757  -20.1233    0.0000 C   0  0  0  0  0  0  0  0  0  0  0  0
    2.7775  -20.8805    0.0000 C   0  0  0  0  0  0  0  0  0  0  0  0
    2.7795  -22.3878    0.0000 C   0  0  0  0  0  0  0  0  0  0  0  0
    4.0796  -23.1396    0.0000 C   0  0  0  0  0  0  0  0  0  0  0  0
    5.3860  -22.3846    0.0000 N   0  0  0  0  0  0  0  0  0  0  0  0
    5.3840  -20.8773    0.0000 C   0  0  0  0  0  0  0  0  0  0  0  0
    4.0757  -20.1250    0.0000 C   0  0  0  0  0  0  0  0  0  0  0  0
    6.6902  -20.1271    0.0000 C   0  0  0  0  0  0  0  0  0  0  0  0
    7.9968  -20.8765    0.0000 N   0  0  0  0  0  0  0  0  0  0  0  0
    6.6897  -18.6200    0.0000 O   0  0  0  0  0  0  0  0  0  0  0  0
    9.2934  -20.1231    0.0000 C   0  0  0  0  0  0  0  0  0  0  0  0
   10.5943  -20.8694    0.0000 C   0  0  0  0  0  0  0  0  0  0  0  0
    9.2892  -18.6237    0.0000 C   0  0  0  0  0  0  0  0  0  0  0  0
   10.5860  -17.8701    0.0000 N   0  0  0  0  0  0  0  0  0  0  0  0
    7.9884  -17.8772    0.0000 O   0  0  0  0  0  0  0  0  0  0  0  0
   10.5818  -16.3704    0.0000 O   0  0  0  0  0  0  0  0  0  0  0  0
   11.8909  -20.1160    0.0000 C   0  0  0  0  0  0  0  0  0  0  0  0
   13.1917  -20.8621    0.0000 C   0  0  0  0  0  0  0  0  0  0  0  0
   14.4885  -20.1088    0.0000 N   0  0  0  0  0  0  0  0  0  0  0  0
   15.7892  -20.8549    0.0000 C   0  0  0  0  0  0  0  0  0  0  0  0
   17.0858  -20.1015    0.0000 O   0  0  0  0  0  0  0  0  0  0  0  0
   15.7934  -22.3545    0.0000 O   0  0  0  0  0  0  0  0  0  0  0  0
   18.3868  -20.8476    0.0000 C   0  0  0  0  0  0  0  0  0  0  0  0
   19.6833  -20.0944    0.0000 C   0  0  0  0  0  0  0  0  0  0  0  0
   20.9828  -20.8439    0.0000 C   0  0  0  0  0  0  0  0  0  0  0  0
   22.2787  -20.0920    0.0000 C   0  0  0  0  0  0  0  0  0  0  0  0
   22.2752  -18.5907    0.0000 C   0  0  0  0  0  0  0  0  0  0  0  0
   20.9654  -17.8446    0.0000 C   0  0  0  0  0  0  0  0  0  0  0  0
   19.6748  -18.6013    0.0000 C   0  0  0  0  0  0  0  0  0  0  0  0
  3  6  2  0  0  0  0
 14 16  1  0  0  0  0
  5  4  2  0  0  0  0
 16 17  1  0  0  0  0
  5 10  1  0  0  0  0
 16 18  2  0  0  0  0
  6  7  1  0  0  0  0
 17 19  1  0  0  0  0
  7  8  1  0  0  0  0
 15 20  1  0  0  0  0
  9  8  1  0  0  0  0
 20 21  1  0  0  0  0
  9 10  1  0  0  0  0
 21 22  1  0  0  0  0
  5  6  1  0  0  0  0
 22 23  1  0  0  0  0
  9 11  1  1  0  0  0
 23 24  1  0  0  0  0
 23 25  2  0  0  0  0
 11 12  1  0  0  0  0
 24 26  1  0  0  0  0
  1  2  2  0  0  0  0
 26 27  1  0  0  0  0
 11 13  2  0  0  0  0
 27 28  2  0  0  0  0
  1  4  1  0  0  0  0
 28 29  1  0  0  0  0
 14 12  1  6  0  0  0
 29 30  2  0  0  0  0
  2  3  1  0  0  0  0
 30 31  1  0  0  0  0
 14 15  1  0  0  0  0
 31 32  2  0  0  0  0
 32 27  1  0  0  0  0
M  END
> <Value>
4.799423073245152

> <Relation>
=

> <SourceURI>
mol:CHEMBL1830659

$$$$

Generated by Molecular Materials Informatics

 28 31  0  0  0  0  0  0  0  0999 V2000
    1.3753  -26.0863    0.0000 C   0  0  0  0  0  0  0  0  0  0  0  0
    1.3753  -27.5893    0.0000 C   0  0  0  0  0  0  0  0  0  0  0  0
    2.6736  -28.3370    0.0000 C   0  0  0  0  0  0  0  0  0  0  0  0
    2.6736  -25.3309    0.0000 C   0  0  0  0  0  0  0  0  0  0  0  0
    3.9714  -26.0863    0.0000 C   0  0  0  0  0  0  0  0  0  0  0  0
    3.9734  -27.5893    0.0000 C   0  0  0  0  0  0  0  0  0  0  0  0
    5.2698  -28.3386    0.0000 C   0  0  0  0  0  0  0  0  0  0  0  0
    6.5726  -27.5859    0.0000 N   0  0  0  0  0  0  0  0  0  0  0  0
    6.5708  -26.0830    0.0000 C   0  0  0  0  0  0  0  0  0  0  0  0
    5.2660  -25.3327    0.0000 C   0  0  0  0  0  0  0  0  0  0  0  0
    7.8732  -25.3349    0.0000 C   0  0  0  0  0  0  0  0  0  0  0  0
    9.1757  -26.0823    0.0000 N   0  0  0  0  0  0  0  0  0  0  0  0
    7.8728  -23.8321    0.0000 O   0  0  0  0  0  0  0  0  0  0  0  0
   10.4707  -25.3342    0.0000 C   0  0  0  0  0  0  0  0  0  0  0  0
   11.7736  -26.0815    0.0000 C   0  0  0  0  0  0  0  0  0  0  0  0
   13.0758  -25.3335    0.0000 N   0  0  0  0  0  0  0  0  0  0  0  0
   11.7740  -27.5846    0.0000 O   0  0  0  0  0  0  0  0  0  0  0  0
   14.3786  -26.0808    0.0000 O   0  0  0  0  0  0  0  0  0  0  0  0
   10.4703  -23.8313    0.0000 C   0  0  0  0  0  0  0  0  0  0  0  0
   11.7654  -23.0825    0.0000 C   0  0  0  0  0  0  0  0  0  0  0  0
   13.1987  -23.4887    0.0000 C   0  0  0  0  0  0  0  0  0  0  0  0
   11.7071  -21.5837    0.0000 N   0  0  0  0  0  0  0  0  0  0  0  0
   13.1116  -21.0706    0.0000 C   0  0  0  0  0  0  0  0  0  0  0  0
   14.0284  -22.2498    0.0000 C   0  0  0  0  0  0  0  0  0  0  0  0
   15.5045  -22.0440    0.0000 C   0  0  0  0  0  0  0  0  0  0  0  0
   16.0658  -20.6602    0.0000 C   0  0  0  0  0  0  0  0  0  0  0  0
   15.1398  -19.4809    0.0000 C   0  0  0  0  0  0  0  0  0  0  0  0
   13.6671  -19.6926    0.0000 C   0  0  0  0  0  0  0  0  0  0  0  0
  1  4  1  0  0  0  0
 14 12  1  1  0  0  0
  2  3  1  0  0  0  0
 14 15  1  0  0  0  0
  3  6  2  0  0  0  0
 15 16  1  0  0  0  0
  5  4  2  0  0  0  0
 15 17  2  0  0  0  0
  5 10  1  0  0  0  0
 16 18  1  0  0  0  0
  6  7  1  0  0  0  0
 14 19  1  0  0  0  0
  7  8  1  0  0  0  0
 19 20  1  0  0  0  0
 20 21  2  0  0  0  0
  9  8  1  0  0  0  0
  9 10  1  0  0  0  0
 21 24  1  0  0  0  0
 23 22  1  0  0  0  0
 22 20  1  0  0  0  0
  5  6  1  0  0  0  0
  9 11  1  1  0  0  0
 23 24  2  0  0  0  0
 24 25  1  0  0  0  0
 11 12  1  0  0  0  0
 25 26  2  0  0  0  0
  1  2  2  0  0  0  0
 26 27  1  0  0  0  0
 11 13  2  0  0  0  0
 27 28  2  0  0  0  0
 28 23  1  0  0  0  0
M  END
> <Value>
4.362110183419209

> <Relation>
=

> <SourceURI>
mol:CHEMBL1830660

$$$$

Generated by Molecular Materials Informatics

 30 31  0  0  0  0  0  0  0  0999 V2000
   -8.3329   -1.4806    0.0000 C   0  0  0  0  0  0  0  0  0  0  0  0
   -8.3329   -2.9844    0.0000 C   0  0  0  0  0  0  0  0  0  0  0  0
   -7.0340   -3.7327    0.0000 C   0  0  0  0  0  0  0  0  0  0  0  0
   -7.0340   -0.7249    0.0000 C   0  0  0  0  0  0  0  0  0  0  0  0
   -5.7426   -1.4806    0.0000 C   0  0  0  0  0  0  0  0  0  0  0  0
   -5.7406   -2.9844    0.0000 C   0  0  0  0  0  0  0  0  0  0  0  0
   -4.4436   -3.7345    0.0000 C   0  0  0  0  0  0  0  0  0  0  0  0
   -3.1400   -2.9811    0.0000 N   0  0  0  0  0  0  0  0  0  0  0  0
   -3.1418   -1.4773    0.0000 C   0  0  0  0  0  0  0  0  0  0  0  0
   -4.4474   -0.7267    0.0000 C   0  0  0  0  0  0  0  0  0  0  0  0
   -1.8388   -0.7289    0.0000 C   0  0  0  0  0  0  0  0  0  0  0  0
   -0.5352   -1.4766    0.0000 N   0  0  0  0  0  0  0  0  0  0  0  0
   -1.8392    0.7750    0.0000 O   0  0  0  0  0  0  0  0  0  0  0  0
    0.7678   -0.7281    0.0000 C   0  0  0  0  0  0  0  0  0  0  0  0
    0.7674    0.7757    0.0000 C   0  0  0  0  0  0  0  0  0  0  0  0
    2.0706    1.5316    0.0000 N   0  0  0  0  0  0  0  0  0  0  0  0
   -0.5327    1.5290    0.0000 O   0  0  0  0  0  0  0  0  0  0  0  0
    2.0683   -1.4741    0.0000 C   0  0  0  0  0  0  0  0  0  0  0  0
    2.0686   -2.9741    0.0000 C   0  0  0  0  0  0  0  0  0  0  0  0
    0.7687   -3.7283    0.0000 C   0  0  0  0  0  0  0  0  0  0  0  0
    3.3688   -3.7276    0.0000 C   0  0  0  0  0  0  0  0  0  0  0  0
    2.0675    3.0279    0.0000 C   0  0  0  0  0  0  0  0  0  0  0  0
    3.3617    3.7788    0.0000 C   0  0  0  0  0  0  0  0  0  0  0  0
    0.7701    3.7733    0.0000 C   0  0  0  0  0  0  0  0  0  0  0  0
    0.7669    5.2695    0.0000 O   0  0  0  0  0  0  0  0  0  0  0  0
   -0.5240    3.0225    0.0000 N   0  0  0  0  0  0  0  0  0  0  0  0
   -1.8216    3.7679    0.0000 O   0  0  0  0  0  0  0  0  0  0  0  0
    4.6591    3.0334    0.0000 C   0  0  0  0  0  0  0  0  0  0  0  0
    5.9532    3.7842    0.0000 C   0  0  0  0  0  0  0  0  0  0  0  0
    4.6623    1.5370    0.0000 C   0  0  0  0  0  0  0  0  0  0  0  0
  1  2  2  0  0  0  0
  1  4  1  0  0  0  0
  2  3  1  0  0  0  0
  3  6  2  0  0  0  0
  5  4  2  0  0  0  0
  5  6  1  0  0  0  0
  5 10  1  0  0  0  0
  6  7  1  0  0  0  0
  7  8  1  0  0  0  0
  9  8  1  0  0  0  0
  9 10  1  0  0  0  0
  9 11  1  1  0  0  0
 11 12  1  0  0  0  0
 11 13  2  0  0  0  0
 14 12  1  6  0  0  0
 14 15  1  0  0  0  0
 15 16  1  0  0  0  0
 15 17  2  0  0  0  0
 14 18  1  0  0  0  0
 18 19  1  0  0  0  0
 19 20  1  0  0  0  0
 19 21  1  0  0  0  0
 22 16  1  6  0  0  0
 22 23  1  0  0  0  0
 22 24  1  0  0  0  0
 24 25  2  0  0  0  0
 24 26  1  0  0  0  0
 26 27  1  0  0  0  0
 23 28  1  0  0  0  0
 28 29  1  0  0  0  0
 28 30  1  0  0  0  0
M  END
> <Value>
3.3181078089948177

> <Relation>
=

> <SourceURI>
mol:CHEMBL1830661

$$$$

Generated by Molecular Materials Informatics

 33 35  0  0  0  0  0  0  0  0999 V2000
    2.1129    1.0536    0.0000 C   0  0  0  0  0  0  0  0  0  0  0  0
    2.1129   -0.4495    0.0000 C   0  0  0  0  0  0  0  0  0  0  0  0
    3.4120   -1.2010    0.0000 C   0  0  0  0  0  0  0  0  0  0  0  0
    3.4120    1.8048    0.0000 C   0  0  0  0  0  0  0  0  0  0  0  0
    4.7111    1.0536    0.0000 C   0  0  0  0  0  0  0  0  0  0  0  0
    4.7131   -0.4495    0.0000 C   0  0  0  0  0  0  0  0  0  0  0  0
    6.0106   -1.2028    0.0000 C   0  0  0  0  0  0  0  0  0  0  0  0
    7.3144   -0.4461    0.0000 N   0  0  0  0  0  0  0  0  0  0  0  0
    7.3124    1.0568    0.0000 C   0  0  0  0  0  0  0  0  0  0  0  0
    6.0068    1.8030    0.0000 C   0  0  0  0  0  0  0  0  0  0  0  0
    8.6157    1.8010    0.0000 C   0  0  0  0  0  0  0  0  0  0  0  0
    9.9197    1.0576    0.0000 N   0  0  0  0  0  0  0  0  0  0  0  0
    8.6153    3.3039    0.0000 O   0  0  0  0  0  0  0  0  0  0  0  0
   11.2155    1.8017    0.0000 C   0  0  0  0  0  0  0  0  0  0  0  0
   12.5119    1.0581    0.0000 C   0  0  0  0  0  0  0  0  0  0  0  0
   13.8151    1.8023    0.0000 N   0  0  0  0  0  0  0  0  0  0  0  0
   12.5122   -0.4448    0.0000 O   0  0  0  0  0  0  0  0  0  0  0  0
   11.2151    3.3047    0.0000 C   0  0  0  0  0  0  0  0  0  0  0  0
   12.5109    4.0639    0.0000 C   0  0  0  0  0  0  0  0  0  0  0  0
   12.5079    5.5596    0.0000 C   0  0  0  0  0  0  0  0  0  0  0  0
   13.8088    3.3152    0.0000 C   0  0  0  0  0  0  0  0  0  0  0  0
   15.1095    1.0556    0.0000 C   0  0  0  0  0  0  0  0  0  0  0  0
   16.4073    1.7965    0.0000 C   0  0  0  0  0  0  0  0  0  0  0  0
   15.1062   -0.4397    0.0000 C   0  0  0  0  0  0  0  0  0  0  0  0
   16.3968   -1.1888    0.0000 C   0  0  0  0  0  0  0  0  0  0  0  0
   16.3866   -2.6763    0.0000 C   0  0  0  0  0  0  0  0  0  0  0  0
   17.6757   -3.4252    0.0000 C   0  0  0  0  0  0  0  0  0  0  0  0
   18.9715   -2.6819    0.0000 C   0  0  0  0  0  0  0  0  0  0  0  0
   18.9700   -1.1819    0.0000 C   0  0  0  0  0  0  0  0  0  0  0  0
   17.6799   -0.4397    0.0000 C   0  0  0  0  0  0  0  0  0  0  0  0
   17.6960    1.0443    0.0000 N   0  0  0  0  0  0  0  0  0  0  0  0
   16.4144    3.2888    0.0000 O   0  0  0  0  0  0  0  0  0  0  0  0
   18.9919    1.7843    0.0000 O   0  0  0  0  0  0  0  0  0  0  0  0
  7  8  1  0  0  0  0
  9  8  1  0  0  0  0
  9 10  1  0  0  0  0
  9 11  1  1  0  0  0
 11 12  1  0  0  0  0
 11 13  2  0  0  0  0
 14 12  1  1  0  0  0
 14 15  1  0  0  0  0
 15 16  1  0  0  0  0
 15 17  2  0  0  0  0
 14 18  1  0  0  0  0
 18 19  1  0  0  0  0
 19 20  1  0  0  0  0
 19 21  1  0  0  0  0
 22 16  1  6  0  0  0
 22 23  1  0  0  0  0
 22 24  1  0  0  0  0
 24 25  1  0  0  0  0
  1  2  2  0  0  0  0
 25 26  2  0  0  0  0
  1  4  1  0  0  0  0
 26 27  1  0  0  0  0
  2  3  1  0  0  0  0
 27 28  2  0  0  0  0
  3  6  2  0  0  0  0
 28 29  1  0  0  0  0
  5  4  2  0  0  0  0
 29 30  2  0  0  0  0
 30 25  1  0  0  0  0
  5  6  1  0  0  0  0
 23 31  1  0  0  0  0
  5 10  1  0  0  0  0
 23 32  2  0  0  0  0
  6  7  1  0  0  0  0
 31 33  1  0  0  0  0
M  END
> <Value>
3.3322856151570748

> <Relation>
=

> <SourceURI>
mol:CHEMBL1830662

$$$$

Generated by Molecular Materials Informatics

 36 39  0  0  0  0  0  0  0  0999 V2000
    2.3079   -5.9489    0.0000 C   0  0  0  0  0  0  0  0  0  0  0  0
    2.3079   -7.4513    0.0000 C   0  0  0  0  0  0  0  0  0  0  0  0
    3.6067   -8.2027    0.0000 C   0  0  0  0  0  0  0  0  0  0  0  0
    3.6067   -5.1975    0.0000 C   0  0  0  0  0  0  0  0  0  0  0  0
    4.9054   -5.9489    0.0000 C   0  0  0  0  0  0  0  0  0  0  0  0
    4.9074   -7.4513    0.0000 C   0  0  0  0  0  0  0  0  0  0  0  0
    6.2045   -8.2045    0.0000 C   0  0  0  0  0  0  0  0  0  0  0  0
    7.5079   -7.4480    0.0000 N   0  0  0  0  0  0  0  0  0  0  0  0
    7.5059   -5.9456    0.0000 C   0  0  0  0  0  0  0  0  0  0  0  0
    6.2007   -5.1993    0.0000 C   0  0  0  0  0  0  0  0  0  0  0  0
    8.8093   -5.2015    0.0000 C   0  0  0  0  0  0  0  0  0  0  0  0
   10.1126   -5.9449    0.0000 N   0  0  0  0  0  0  0  0  0  0  0  0
    8.8087   -3.6988    0.0000 O   0  0  0  0  0  0  0  0  0  0  0  0
   11.4080   -5.2007    0.0000 C   0  0  0  0  0  0  0  0  0  0  0  0
   12.7041   -5.9441    0.0000 C   0  0  0  0  0  0  0  0  0  0  0  0
   14.0071   -5.2000    0.0000 N   0  0  0  0  0  0  0  0  0  0  0  0
   12.7044   -7.4467    0.0000 O   0  0  0  0  0  0  0  0  0  0  0  0
   11.4076   -3.6981    0.0000 C   0  0  0  0  0  0  0  0  0  0  0  0
   12.7033   -2.9391    0.0000 C   0  0  0  0  0  0  0  0  0  0  0  0
   15.3013   -5.9467    0.0000 C   0  0  0  0  0  0  0  0  0  0  0  0
   16.5987   -5.2058    0.0000 C   0  0  0  0  0  0  0  0  0  0  0  0
   15.2979   -7.4417    0.0000 C   0  0  0  0  0  0  0  0  0  0  0  0
   16.5883   -8.1905    0.0000 C   0  0  0  0  0  0  0  0  0  0  0  0
   16.5778   -9.6777    0.0000 C   0  0  0  0  0  0  0  0  0  0  0  0
   17.8666  -10.4263    0.0000 C   0  0  0  0  0  0  0  0  0  0  0  0
   19.1619   -9.6831    0.0000 C   0  0  0  0  0  0  0  0  0  0  0  0
   19.1605   -8.1836    0.0000 C   0  0  0  0  0  0  0  0  0  0  0  0
   17.8708   -7.4417    0.0000 C   0  0  0  0  0  0  0  0  0  0  0  0
   17.8871   -5.9578    0.0000 N   0  0  0  0  0  0  0  0  0  0  0  0
   16.6058   -3.7139    0.0000 O   0  0  0  0  0  0  0  0  0  0  0  0
   19.1827   -5.2180    0.0000 O   0  0  0  0  0  0  0  0  0  0  0  0
   14.0031   -3.6812    0.0000 C   0  0  0  0  0  0  0  0  0  0  0  0
   15.2977   -2.9233    0.0000 C   0  0  0  0  0  0  0  0  0  0  0  0
   15.2888   -1.4201    0.0000 C   0  0  0  0  0  0  0  0  0  0  0  0
   13.9745   -0.6782    0.0000 C   0  0  0  0  0  0  0  0  0  0  0  0
   12.6852   -1.4401    0.0000 C   0  0  0  0  0  0  0  0  0  0  0  0
 11 13  2  0  0  0  0
 14 12  1  1  0  0  0
 14 15  1  0  0  0  0
 15 16  1  0  0  0  0
 15 17  2  0  0  0  0
 14 18  1  0  0  0  0
 18 19  1  0  0  0  0
 20 16  1  6  0  0  0
 20 21  1  0  0  0  0
 20 22  1  0  0  0  0
 22 23  1  0  0  0  0
  1  2  2  0  0  0  0
 23 24  2  0  0  0  0
  1  4  1  0  0  0  0
 24 25  1  0  0  0  0
  2  3  1  0  0  0  0
 25 26  2  0  0  0  0
  3  6  2  0  0  0  0
 26 27  1  0  0  0  0
  5  4  2  0  0  0  0
 27 28  2  0  0  0  0
 28 23  1  0  0  0  0
  5  6  1  0  0  0  0
 21 29  1  0  0  0  0
  5 10  1  0  0  0  0
 21 30  2  0  0  0  0
  6  7  1  0  0  0  0
 29 31  1  0  0  0  0
  7  8  1  0  0  0  0
 19 32  2  0  0  0  0
  9  8  1  0  0  0  0
 32 33  1  0  0  0  0
  9 10  1  0  0  0  0
 33 34  2  0  0  0  0
  9 11  1  1  0  0  0
 34 35  1  0  0  0  0
 11 12  1  0  0  0  0
 35 36  2  0  0  0  0
 36 19  1  0  0  0  0
M  END
> <Value>
3.361231287102152

> <Relation>
=

> <SourceURI>
mol:CHEMBL1830664

$$$$

Generated by Molecular Materials Informatics

 21 22  0  0  0  0  0  0  0  0999 V2000
   10.5696   -1.9915    0.0000 C   0  0  0  0  0  0  0  0  0  0  0  0
   10.5696   -3.4923    0.0000 C   0  0  0  0  0  0  0  0  0  0  0  0
   11.8660   -4.2392    0.0000 C   0  0  0  0  0  0  0  0  0  0  0  0
   11.8660   -1.2374    0.0000 C   0  0  0  0  0  0  0  0  0  0  0  0
   13.1625   -1.9915    0.0000 C   0  0  0  0  0  0  0  0  0  0  0  0
   13.1643   -3.4923    0.0000 C   0  0  0  0  0  0  0  0  0  0  0  0
   14.4589   -4.2408    0.0000 C   0  0  0  0  0  0  0  0  0  0  0  0
   15.7599   -3.4892    0.0000 N   0  0  0  0  0  0  0  0  0  0  0  0
   15.7579   -1.9882    0.0000 C   0  0  0  0  0  0  0  0  0  0  0  0
   14.4551   -1.2392    0.0000 C   0  0  0  0  0  0  0  0  0  0  0  0
   17.0585   -1.2414    0.0000 C   0  0  0  0  0  0  0  0  0  0  0  0
   18.3597   -1.9877    0.0000 N   0  0  0  0  0  0  0  0  0  0  0  0
   17.0581    0.2596    0.0000 O   0  0  0  0  0  0  0  0  0  0  0  0
   19.6527   -1.2407    0.0000 C   0  0  0  0  0  0  0  0  0  0  0  0
   20.9538   -1.9870    0.0000 C   0  0  0  0  0  0  0  0  0  0  0  0
   22.2543   -1.2399    0.0000 N   0  0  0  0  0  0  0  0  0  0  0  0
   20.9542   -3.4879    0.0000 O   0  0  0  0  0  0  0  0  0  0  0  0
   23.5554   -1.9862    0.0000 O   0  0  0  0  0  0  0  0  0  0  0  0
   19.6523    0.2603    0.0000 C   0  0  0  0  0  0  0  0  0  0  0  0
   20.9529    1.0148    0.0000 C   0  0  0  0  0  0  0  0  0  0  0  0
   18.3588    1.0142    0.0000 C   0  0  0  0  0  0  0  0  0  0  0  0
  9 10  1  0  0  0  0
  5  6  1  0  0  0  0
  9 11  1  1  0  0  0
 11 12  1  0  0  0  0
  1  2  2  0  0  0  0
 11 13  2  0  0  0  0
  1  4  1  0  0  0  0
 14 12  1  1  0  0  0
  2  3  1  0  0  0  0
 14 15  1  0  0  0  0
  3  6  2  0  0  0  0
 15 16  1  0  0  0  0
  5  4  2  0  0  0  0
 15 17  2  0  0  0  0
  5 10  1  0  0  0  0
 16 18  1  0  0  0  0
  6  7  1  0  0  0  0
 14 19  1  0  0  0  0
  7  8  1  0  0  0  0
 19 20  1  0  0  0  0
  9  8  1  0  0  0  0
 19 21  1  0  0  0  0
M  END
> <Value>
4.436756298859602

> <Relation>
=

> <SourceURI>
mol:CHEMBL1830648

$$$$

Generated by Molecular Materials Informatics

 26 28  0  0  0  0  0  0  0  0999 V2000
   -8.7921    1.0616    0.0000 C   0  0  0  0  0  0  0  0  0  0  0  0
   -8.7921   -0.4393    0.0000 C   0  0  0  0  0  0  0  0  0  0  0  0
   -7.4957   -1.1860    0.0000 C   0  0  0  0  0  0  0  0  0  0  0  0
   -7.4957    1.8157    0.0000 C   0  0  0  0  0  0  0  0  0  0  0  0
   -6.1994    1.0616    0.0000 C   0  0  0  0  0  0  0  0  0  0  0  0
   -6.1974   -0.4393    0.0000 C   0  0  0  0  0  0  0  0  0  0  0  0
   -4.9028   -1.1878    0.0000 C   0  0  0  0  0  0  0  0  0  0  0  0
   -3.6019   -0.4361    0.0000 N   0  0  0  0  0  0  0  0  0  0  0  0
   -3.6039    1.0649    0.0000 C   0  0  0  0  0  0  0  0  0  0  0  0
   -4.9067    1.8141    0.0000 C   0  0  0  0  0  0  0  0  0  0  0  0
   -2.3107    1.8119    0.0000 C   0  0  0  0  0  0  0  0  0  0  0  0
   -1.0099    1.0656    0.0000 N   0  0  0  0  0  0  0  0  0  0  0  0
   -2.3111    3.3127    0.0000 O   0  0  0  0  0  0  0  0  0  0  0  0
    0.2909    1.8127    0.0000 C   0  0  0  0  0  0  0  0  0  0  0  0
    1.5944    1.0576    0.0000 C   0  0  0  0  0  0  0  0  0  0  0  0
    2.8910    1.7983    0.0000 N   0  0  0  0  0  0  0  0  0  0  0  0
    2.8985    3.2998    0.0000 C   0  0  0  0  0  0  0  0  0  0  0  0
    1.5977    4.0577    0.0000 C   0  0  0  0  0  0  0  0  0  0  0  0
    0.2896    3.3065    0.0000 C   0  0  0  0  0  0  0  0  0  0  0  0
    1.5900   -0.4431    0.0000 O   0  0  0  0  0  0  0  0  0  0  0  0
    4.2018    4.0495    0.0000 O   0  0  0  0  0  0  0  0  0  0  0  0
    4.1893    1.0471    0.0000 C   0  0  0  0  0  0  0  0  0  0  0  0
    5.4928    1.7892    0.0000 C   0  0  0  0  0  0  0  0  0  0  0  0
    6.7908    1.0382    0.0000 N   0  0  0  0  0  0  0  0  0  0  0  0
    5.4979    3.2902    0.0000 O   0  0  0  0  0  0  0  0  0  0  0  0
    8.0867    1.7803    0.0000 O   0  0  0  0  0  0  0  0  0  0  0  0
  1  2  2  0  0  0  0
 11 13  2  0  0  0  0
  1  4  1  0  0  0  0
 14 12  1  1  0  0  0
 14 15  1  0  0  0  0
  2  3  1  0  0  0  0
  3  6  2  0  0  0  0
  5  4  2  0  0  0  0
  5 10  1  0  0  0  0
  6  7  1  0  0  0  0
 14 19  1  0  0  0  0
 15 16  1  0  0  0  0
 16 17  1  0  0  0  0
 17 18  1  0  0  0  0
 18 19  1  0  0  0  0
  7  8  1  0  0  0  0
 15 20  2  0  0  0  0
  9  8  1  0  0  0  0
 17 21  2  0  0  0  0
  9 10  1  0  0  0  0
 16 22  1  0  0  0  0
  5  6  1  0  0  0  0
 22 23  1  0  0  0  0
  9 11  1  1  0  0  0
 23 24  1  0  0  0  0
 23 25  2  0  0  0  0
 11 12  1  0  0  0  0
 24 26  1  0  0  0  0
M  END
> <Value>
4.690795820329592

> <Relation>
=

> <SourceURI>
mol:CHEMBL1830508

$$$$

Generated by Molecular Materials Informatics

 19 20  0  0  0  0  0  0  0  0999 V2000
    2.4232    1.3683    0.0000 C   0  0  0  0  0  0  0  0  0  0  0  0
    2.4232   -0.1328    0.0000 C   0  0  0  0  0  0  0  0  0  0  0  0
    3.7198   -0.8795    0.0000 C   0  0  0  0  0  0  0  0  0  0  0  0
    3.7198    2.1226    0.0000 C   0  0  0  0  0  0  0  0  0  0  0  0
    5.0163    1.3683    0.0000 C   0  0  0  0  0  0  0  0  0  0  0  0
    5.0181   -0.1328    0.0000 C   0  0  0  0  0  0  0  0  0  0  0  0
    6.3128   -0.8812    0.0000 C   0  0  0  0  0  0  0  0  0  0  0  0
    7.6064   -0.1294    0.0000 N   0  0  0  0  0  0  0  0  0  0  0  0
    7.6044    1.3715    0.0000 C   0  0  0  0  0  0  0  0  0  0  0  0
    6.3090    2.1208    0.0000 C   0  0  0  0  0  0  0  0  0  0  0  0
    8.9053    2.1186    0.0000 C   0  0  0  0  0  0  0  0  0  0  0  0
   10.2064    1.3723    0.0000 N   0  0  0  0  0  0  0  0  0  0  0  0
    8.9048    3.6197    0.0000 O   0  0  0  0  0  0  0  0  0  0  0  0
   11.5069    2.1193    0.0000 C   0  0  0  0  0  0  0  0  0  0  0  0
   12.8082    1.3730    0.0000 C   0  0  0  0  0  0  0  0  0  0  0  0
   14.1089    2.1201    0.0000 C   0  0  0  0  0  0  0  0  0  0  0  0
   15.4101    1.3737    0.0000 N   0  0  0  0  0  0  0  0  0  0  0  0
   14.1085    3.6210    0.0000 O   0  0  0  0  0  0  0  0  0  0  0  0
   16.7109    2.1208    0.0000 O   0  0  0  0  0  0  0  0  0  0  0  0
  7  8  1  0  0  0  0
  9  8  1  0  0  0  0
  9 10  1  0  0  0  0
  5  6  1  0  0  0  0
  9 11  1  1  0  0  0
 11 12  1  0  0  0  0
  1  2  2  0  0  0  0
 11 13  2  0  0  0  0
  1  4  1  0  0  0  0
 12 14  1  0  0  0  0
  2  3  1  0  0  0  0
 14 15  1  0  0  0  0
  3  6  2  0  0  0  0
 15 16  1  0  0  0  0
  5  4  2  0  0  0  0
 16 17  1  0  0  0  0
  5 10  1  0  0  0  0
 16 18  2  0  0  0  0
  6  7  1  0  0  0  0
 17 19  1  0  0  0  0
M  END
> <Value>
4.43086027452754

> <Relation>
=

> <SourceURI>
mol:CHEMBL1830509

$$$$

Generated by Molecular Materials Informatics

 20 21  0  0  0  0  0  0  0  0999 V2000
   11.3216    2.0656    0.0000 C   0  0  0  0  0  0  0  0  0  0  0  0
   11.3216    0.5645    0.0000 C   0  0  0  0  0  0  0  0  0  0  0  0
   12.6105   -0.1822    0.0000 C   0  0  0  0  0  0  0  0  0  0  0  0
   12.6105    2.8199    0.0000 C   0  0  0  0  0  0  0  0  0  0  0  0
   13.9070    2.0656    0.0000 C   0  0  0  0  0  0  0  0  0  0  0  0
   13.9088    0.5645    0.0000 C   0  0  0  0  0  0  0  0  0  0  0  0
   15.2035   -0.1839    0.0000 C   0  0  0  0  0  0  0  0  0  0  0  0
   16.5046    0.5679    0.0000 N   0  0  0  0  0  0  0  0  0  0  0  0
   16.5027    2.0688    0.0000 C   0  0  0  0  0  0  0  0  0  0  0  0
   15.1997    2.8181    0.0000 C   0  0  0  0  0  0  0  0  0  0  0  0
   17.8033    2.8159    0.0000 C   0  0  0  0  0  0  0  0  0  0  0  0
   19.1045    2.0696    0.0000 N   0  0  0  0  0  0  0  0  0  0  0  0
   17.8029    4.3170    0.0000 O   0  0  0  0  0  0  0  0  0  0  0  0
   20.4052    2.8166    0.0000 C   0  0  0  0  0  0  0  0  0  0  0  0
   21.6988    2.0703    0.0000 C   0  0  0  0  0  0  0  0  0  0  0  0
   22.9995    2.8174    0.0000 C   0  0  0  0  0  0  0  0  0  0  0  0
   24.3008    2.0710    0.0000 C   0  0  0  0  0  0  0  0  0  0  0  0
   25.6015    2.8181    0.0000 N   0  0  0  0  0  0  0  0  0  0  0  0
   24.3011    0.5699    0.0000 O   0  0  0  0  0  0  0  0  0  0  0  0
   26.9025    2.0715    0.0000 O   0  0  0  0  0  0  0  0  0  0  0  0
  9  8  1  0  0  0  0
  9 10  1  0  0  0  0
  5  6  1  0  0  0  0
  9 11  1  1  0  0  0
 11 12  1  0  0  0  0
  1  2  2  0  0  0  0
 11 13  2  0  0  0  0
  1  4  1  0  0  0  0
 12 14  1  0  0  0  0
  2  3  1  0  0  0  0
 14 15  1  0  0  0  0
  3  6  2  0  0  0  0
 15 16  1  0  0  0  0
  5  4  2  0  0  0  0
 16 17  1  0  0  0  0
  5 10  1  0  0  0  0
 17 18  1  0  0  0  0
  6  7  1  0  0  0  0
 17 19  2  0  0  0  0
  7  8  1  0  0  0  0
 18 20  1  0  0  0  0
M  END
> <Value>
4.351639989019068

> <Relation>
=

> <SourceURI>
mol:CHEMBL1830510

$$$$

Generated by Molecular Materials Informatics

 18 19  0  0  0  0  0  0  0  0999 V2000
   -7.3277   -2.6389    0.0000 C   0  0  0  0  0  0  0  0  0  0  0  0
   -7.3277   -4.1400    0.0000 C   0  0  0  0  0  0  0  0  0  0  0  0
   -6.0312   -4.8867    0.0000 C   0  0  0  0  0  0  0  0  0  0  0  0
   -6.0312   -1.8846    0.0000 C   0  0  0  0  0  0  0  0  0  0  0  0
   -4.7347   -2.6389    0.0000 C   0  0  0  0  0  0  0  0  0  0  0  0
   -4.7329   -4.1400    0.0000 C   0  0  0  0  0  0  0  0  0  0  0  0
   -3.4382   -4.8884    0.0000 C   0  0  0  0  0  0  0  0  0  0  0  0
   -2.1369   -4.1366    0.0000 N   0  0  0  0  0  0  0  0  0  0  0  0
   -2.1389   -2.6357    0.0000 C   0  0  0  0  0  0  0  0  0  0  0  0
   -3.4420   -1.8864    0.0000 C   0  0  0  0  0  0  0  0  0  0  0  0
   -0.8382   -1.8886    0.0000 C   0  0  0  0  0  0  0  0  0  0  0  0
    0.4628   -2.6350    0.0000 N   0  0  0  0  0  0  0  0  0  0  0  0
   -0.8386   -0.3875    0.0000 O   0  0  0  0  0  0  0  0  0  0  0  0
    1.7559   -1.8879    0.0000 C   0  0  0  0  0  0  0  0  0  0  0  0
    3.0572   -2.6342    0.0000 C   0  0  0  0  0  0  0  0  0  0  0  0
    4.3579   -1.8871    0.0000 N   0  0  0  0  0  0  0  0  0  0  0  0
    3.0575   -4.1353    0.0000 O   0  0  0  0  0  0  0  0  0  0  0  0
    5.6589   -2.6335    0.0000 O   0  0  0  0  0  0  0  0  0  0  0  0
  6  7  1  0  0  0  0
  7  8  1  0  0  0  0
  9  8  1  0  0  0  0
  9 10  1  0  0  0  0
  5  6  1  0  0  0  0
  9 11  1  1  0  0  0
 11 12  1  0  0  0  0
  1  2  2  0  0  0  0
 11 13  2  0  0  0  0
  1  4  1  0  0  0  0
 12 14  1  0  0  0  0
  2  3  1  0  0  0  0
 14 15  1  0  0  0  0
  3  6  2  0  0  0  0
 15 16  1  0  0  0  0
  5  4  2  0  0  0  0
 15 17  2  0  0  0  0
  5 10  1  0  0  0  0
 16 18  1  0  0  0  0
M  END
> <Value>
4.663940722133651

> <Relation>
=

> <SourceURI>
mol:CHEMBL1830511

$$$$

Generated by Molecular Materials Informatics

 19 20  0  0  0  0  0  0  0  0999 V2000
    1.7163   -2.3653    0.0000 C   0  0  0  0  0  0  0  0  0  0  0  0
    1.7163   -3.8663    0.0000 C   0  0  0  0  0  0  0  0  0  0  0  0
    3.0128   -4.6130    0.0000 C   0  0  0  0  0  0  0  0  0  0  0  0
    3.0128   -1.6110    0.0000 C   0  0  0  0  0  0  0  0  0  0  0  0
    4.3093   -2.3653    0.0000 C   0  0  0  0  0  0  0  0  0  0  0  0
    4.3113   -3.8663    0.0000 C   0  0  0  0  0  0  0  0  0  0  0  0
    5.6059   -4.6146    0.0000 C   0  0  0  0  0  0  0  0  0  0  0  0
    6.9069   -3.8628    0.0000 N   0  0  0  0  0  0  0  0  0  0  0  0
    6.9049   -2.3620    0.0000 C   0  0  0  0  0  0  0  0  0  0  0  0
    5.6021   -1.6128    0.0000 C   0  0  0  0  0  0  0  0  0  0  0  0
    8.2057   -1.6150    0.0000 C   0  0  0  0  0  0  0  0  0  0  0  0
    9.5065   -2.3613    0.0000 N   0  0  0  0  0  0  0  0  0  0  0  0
    8.2052   -0.1140    0.0000 O   0  0  0  0  0  0  0  0  0  0  0  0
   10.7997   -1.6143    0.0000 C   0  0  0  0  0  0  0  0  0  0  0  0
   12.1007   -2.3606    0.0000 C   0  0  0  0  0  0  0  0  0  0  0  0
   13.4016   -1.6135    0.0000 N   0  0  0  0  0  0  0  0  0  0  0  0
   12.1011   -3.8616    0.0000 O   0  0  0  0  0  0  0  0  0  0  0  0
   14.7026   -2.3599    0.0000 O   0  0  0  0  0  0  0  0  0  0  0  0
   10.7994   -0.1133    0.0000 C   0  0  0  0  0  0  0  0  0  0  0  0
  7  8  1  0  0  0  0
  9  8  1  0  0  0  0
  9 10  1  0  0  0  0
  5  6  1  0  0  0  0
  9 11  1  1  0  0  0
 11 12  1  0  0  0  0
  1  2  2  0  0  0  0
 11 13  2  0  0  0  0
  1  4  1  0  0  0  0
 14 12  1  1  0  0  0
  2  3  1  0  0  0  0
 14 15  1  0  0  0  0
  3  6  2  0  0  0  0
 15 16  1  0  0  0  0
  5  4  2  0  0  0  0
 15 17  2  0  0  0  0
  5 10  1  0  0  0  0
 16 18  1  0  0  0  0
  6  7  1  0  0  0  0
 14 19  1  0  0  0  0
M  END
> <Value>
4.0764969330578955

> <Relation>
=

> <SourceURI>
mol:CHEMBL1830512

$$$$

Generated by Molecular Materials Informatics

 22 23  0  0  0  0  0  0  0  0999 V2000
   -8.1587   -7.2363    0.0000 C   0  0  0  0  0  0  0  0  0  0  0  0
   -8.1587   -8.7372    0.0000 C   0  0  0  0  0  0  0  0  0  0  0  0
   -6.8621   -9.4841    0.0000 C   0  0  0  0  0  0  0  0  0  0  0  0
   -6.8621   -6.4820    0.0000 C   0  0  0  0  0  0  0  0  0  0  0  0
   -5.5731   -7.2363    0.0000 C   0  0  0  0  0  0  0  0  0  0  0  0
   -5.5712   -8.7372    0.0000 C   0  0  0  0  0  0  0  0  0  0  0  0
   -4.2763   -9.4858    0.0000 C   0  0  0  0  0  0  0  0  0  0  0  0
   -2.9753   -8.7339    0.0000 N   0  0  0  0  0  0  0  0  0  0  0  0
   -2.9773   -7.2329    0.0000 C   0  0  0  0  0  0  0  0  0  0  0  0
   -4.2802   -6.4838    0.0000 C   0  0  0  0  0  0  0  0  0  0  0  0
   -1.6764   -6.4858    0.0000 C   0  0  0  0  0  0  0  0  0  0  0  0
   -0.3755   -7.2323    0.0000 N   0  0  0  0  0  0  0  0  0  0  0  0
   -1.6769   -4.9849    0.0000 O   0  0  0  0  0  0  0  0  0  0  0  0
    0.9252   -6.4852    0.0000 C   0  0  0  0  0  0  0  0  0  0  0  0
    0.9249   -4.9842    0.0000 C   0  0  0  0  0  0  0  0  0  0  0  0
    2.2256   -4.2294    0.0000 N   0  0  0  0  0  0  0  0  0  0  0  0
   -0.3729   -4.2322    0.0000 O   0  0  0  0  0  0  0  0  0  0  0  0
    3.5236   -4.9816    0.0000 O   0  0  0  0  0  0  0  0  0  0  0  0
    2.2232   -7.2296    0.0000 C   0  0  0  0  0  0  0  0  0  0  0  0
    2.2236   -8.7270    0.0000 C   0  0  0  0  0  0  0  0  0  0  0  0
    0.9262   -9.4798    0.0000 C   0  0  0  0  0  0  0  0  0  0  0  0
    3.5214   -9.4790    0.0000 C   0  0  0  0  0  0  0  0  0  0  0  0
  1  2  2  0  0  0  0
  1  4  1  0  0  0  0
  2  3  1  0  0  0  0
  3  6  2  0  0  0  0
  5  4  2  0  0  0  0
  5  6  1  0  0  0  0
  5 10  1  0  0  0  0
  6  7  1  0  0  0  0
  7  8  1  0  0  0  0
  9  8  1  0  0  0  0
  9 10  1  0  0  0  0
  9 11  1  1  0  0  0
 11 12  1  0  0  0  0
 11 13  2  0  0  0  0
 14 12  1  6  0  0  0
 14 15  1  0  0  0  0
 15 16  1  0  0  0  0
 15 17  2  0  0  0  0
 16 18  1  0  0  0  0
 14 19  1  0  0  0  0
 19 20  1  0  0  0  0
 20 21  1  0  0  0  0
 20 22  1  0  0  0  0
M  END
> <Value>
4.560351570436526

> <Relation>
=

> <SourceURI>
mol:CHEMBL1830649

$$$$

Generated by Molecular Materials Informatics

 24 26  0  0  0  0  0  0  0  0999 V2000
    9.2456   -7.2999    0.0000 C   0  0  0  0  0  0  0  0  0  0  0  0
    9.2456   -8.8008    0.0000 C   0  0  0  0  0  0  0  0  0  0  0  0
   10.5422   -9.5475    0.0000 C   0  0  0  0  0  0  0  0  0  0  0  0
   10.5422   -6.5455    0.0000 C   0  0  0  0  0  0  0  0  0  0  0  0
   11.8386   -7.2999    0.0000 C   0  0  0  0  0  0  0  0  0  0  0  0
   11.8406   -8.8008    0.0000 C   0  0  0  0  0  0  0  0  0  0  0  0
   13.1353   -9.5493    0.0000 C   0  0  0  0  0  0  0  0  0  0  0  0
   14.4364   -8.7975    0.0000 N   0  0  0  0  0  0  0  0  0  0  0  0
   14.4344   -7.2964    0.0000 C   0  0  0  0  0  0  0  0  0  0  0  0
   13.1315   -6.5473    0.0000 C   0  0  0  0  0  0  0  0  0  0  0  0
   15.7353   -6.5495    0.0000 C   0  0  0  0  0  0  0  0  0  0  0  0
   17.0364   -7.2959    0.0000 N   0  0  0  0  0  0  0  0  0  0  0  0
   15.7347   -5.0484    0.0000 O   0  0  0  0  0  0  0  0  0  0  0  0
   18.3296   -6.5488    0.0000 C   0  0  0  0  0  0  0  0  0  0  0  0
   19.6306   -7.2952    0.0000 C   0  0  0  0  0  0  0  0  0  0  0  0
   20.9315   -6.5481    0.0000 N   0  0  0  0  0  0  0  0  0  0  0  0
   19.6309   -8.7963    0.0000 O   0  0  0  0  0  0  0  0  0  0  0  0
   22.2326   -7.2944    0.0000 O   0  0  0  0  0  0  0  0  0  0  0  0
   18.3293   -5.0477    0.0000 C   0  0  0  0  0  0  0  0  0  0  0  0
   19.6311   -4.3035    0.0000 C   0  0  0  0  0  0  0  0  0  0  0  0
   19.6315   -2.8039    0.0000 C   0  0  0  0  0  0  0  0  0  0  0  0
   18.3304   -2.0523    0.0000 C   0  0  0  0  0  0  0  0  0  0  0  0
   17.0264   -2.8112    0.0000 C   0  0  0  0  0  0  0  0  0  0  0  0
   17.0326   -4.3084    0.0000 C   0  0  0  0  0  0  0  0  0  0  0  0
 11 12  1  0  0  0  0
  1  2  2  0  0  0  0
 11 13  2  0  0  0  0
  1  4  1  0  0  0  0
 14 12  1  1  0  0  0
  2  3  1  0  0  0  0
 14 15  1  0  0  0  0
  3  6  2  0  0  0  0
 15 16  1  0  0  0  0
  5  4  2  0  0  0  0
 15 17  2  0  0  0  0
  5 10  1  0  0  0  0
 16 18  1  0  0  0  0
  6  7  1  0  0  0  0
 14 19  1  0  0  0  0
  7  8  1  0  0  0  0
 19 20  2  0  0  0  0
  9  8  1  0  0  0  0
 20 21  1  0  0  0  0
  9 10  1  0  0  0  0
 21 22  2  0  0  0  0
  5  6  1  0  0  0  0
 22 23  1  0  0  0  0
  9 11  1  1  0  0  0
 23 24  2  0  0  0  0
 24 19  1  0  0  0  0
M  END
> <Value>
5.2020403562628035

> <Relation>
=

> <SourceURI>
mol:CHEMBL1830651

$$$$

Generated by Molecular Materials Informatics

 25 27  0  0  0  0  0  0  0  0999 V2000
   -8.0114  -13.1519    0.0000 C   0  0  0  0  0  0  0  0  0  0  0  0
   -8.0114  -14.6525    0.0000 C   0  0  0  0  0  0  0  0  0  0  0  0
   -6.7149  -15.3992    0.0000 C   0  0  0  0  0  0  0  0  0  0  0  0
   -6.7149  -12.3976    0.0000 C   0  0  0  0  0  0  0  0  0  0  0  0
   -5.4187  -13.1519    0.0000 C   0  0  0  0  0  0  0  0  0  0  0  0
   -5.4168  -14.6525    0.0000 C   0  0  0  0  0  0  0  0  0  0  0  0
   -4.1222  -15.4010    0.0000 C   0  0  0  0  0  0  0  0  0  0  0  0
   -2.8212  -14.6493    0.0000 N   0  0  0  0  0  0  0  0  0  0  0  0
   -2.8232  -13.1485    0.0000 C   0  0  0  0  0  0  0  0  0  0  0  0
   -4.1260  -12.3995    0.0000 C   0  0  0  0  0  0  0  0  0  0  0  0
   -1.5228  -12.4016    0.0000 C   0  0  0  0  0  0  0  0  0  0  0  0
   -0.2216  -13.1479    0.0000 N   0  0  0  0  0  0  0  0  0  0  0  0
   -1.5232  -10.9009    0.0000 O   0  0  0  0  0  0  0  0  0  0  0  0
    1.0712  -12.4009    0.0000 C   0  0  0  0  0  0  0  0  0  0  0  0
    2.3722  -13.1472    0.0000 C   0  0  0  0  0  0  0  0  0  0  0  0
    3.6728  -12.4002    0.0000 N   0  0  0  0  0  0  0  0  0  0  0  0
    2.3725  -14.6480    0.0000 O   0  0  0  0  0  0  0  0  0  0  0  0
    4.9738  -13.1465    0.0000 O   0  0  0  0  0  0  0  0  0  0  0  0
    1.0708  -10.9001    0.0000 C   0  0  0  0  0  0  0  0  0  0  0  0
    2.3714  -10.1456    0.0000 C   0  0  0  0  0  0  0  0  0  0  0  0
    3.6730  -10.8967    0.0000 C   0  0  0  0  0  0  0  0  0  0  0  0
    4.9725  -10.1433    0.0000 C   0  0  0  0  0  0  0  0  0  0  0  0
    4.9703   -8.6381    0.0000 C   0  0  0  0  0  0  0  0  0  0  0  0
    3.6573   -7.8895    0.0000 C   0  0  0  0  0  0  0  0  0  0  0  0
    2.3632   -8.6469    0.0000 C   0  0  0  0  0  0  0  0  0  0  0  0
 11 12  1  0  0  0  0
  1  2  2  0  0  0  0
 11 13  2  0  0  0  0
  1  4  1  0  0  0  0
 14 12  1  1  0  0  0
  2  3  1  0  0  0  0
 14 15  1  0  0  0  0
  3  6  2  0  0  0  0
 15 16  1  0  0  0  0
  5  4  2  0  0  0  0
 15 17  2  0  0  0  0
  5 10  1  0  0  0  0
 16 18  1  0  0  0  0
  6  7  1  0  0  0  0
 14 19  1  0  0  0  0
  7  8  1  0  0  0  0
 19 20  1  0  0  0  0
  9  8  1  0  0  0  0
 20 21  2  0  0  0  0
  9 10  1  0  0  0  0
 21 22  1  0  0  0  0
  5  6  1  0  0  0  0
 22 23  2  0  0  0  0
  9 11  1  1  0  0  0
 23 24  1  0  0  0  0
 24 25  2  0  0  0  0
 25 20  1  0  0  0  0
M  END
> <Value>
4.892111974817201

> <Relation>
=

> <SourceURI>
mol:CHEMBL1830652

$$$$

Generated by Molecular Materials Informatics

 33 35  0  0  0  0  0  0  0  0999 V2000
   -8.5483   -6.7822    0.0000 C   0  0  0  0  0  0  0  0  0  0  0  0
   -8.5483   -8.2845    0.0000 C   0  0  0  0  0  0  0  0  0  0  0  0
   -7.2498   -9.0356    0.0000 C   0  0  0  0  0  0  0  0  0  0  0  0
   -7.2498   -6.0312    0.0000 C   0  0  0  0  0  0  0  0  0  0  0  0
   -5.9511   -6.7822    0.0000 C   0  0  0  0  0  0  0  0  0  0  0  0
   -5.9493   -8.2845    0.0000 C   0  0  0  0  0  0  0  0  0  0  0  0
   -4.6525   -9.0374    0.0000 C   0  0  0  0  0  0  0  0  0  0  0  0
   -3.3494   -8.2812    0.0000 N   0  0  0  0  0  0  0  0  0  0  0  0
   -3.3513   -6.7789    0.0000 C   0  0  0  0  0  0  0  0  0  0  0  0
   -4.6563   -6.0330    0.0000 C   0  0  0  0  0  0  0  0  0  0  0  0
   -2.0484   -6.0350    0.0000 C   0  0  0  0  0  0  0  0  0  0  0  0
   -0.7452   -6.7782    0.0000 N   0  0  0  0  0  0  0  0  0  0  0  0
   -2.0488   -4.5329    0.0000 O   0  0  0  0  0  0  0  0  0  0  0  0
    0.5500   -6.0343    0.0000 C   0  0  0  0  0  0  0  0  0  0  0  0
    1.8455   -6.7776    0.0000 C   0  0  0  0  0  0  0  0  0  0  0  0
    3.1486   -6.0337    0.0000 N   0  0  0  0  0  0  0  0  0  0  0  0
    1.8461   -8.2799    0.0000 O   0  0  0  0  0  0  0  0  0  0  0  0
    0.5496   -4.5321    0.0000 C   0  0  0  0  0  0  0  0  0  0  0  0
    1.8448   -3.7732    0.0000 C   0  0  0  0  0  0  0  0  0  0  0  0
    4.4423   -6.7802    0.0000 C   0  0  0  0  0  0  0  0  0  0  0  0
    5.7395   -6.0395    0.0000 C   0  0  0  0  0  0  0  0  0  0  0  0
    4.4389   -8.2748    0.0000 C   0  0  0  0  0  0  0  0  0  0  0  0
    3.1444   -4.5151    0.0000 C   0  0  0  0  0  0  0  0  0  0  0  0
    4.4389   -3.7574    0.0000 C   0  0  0  0  0  0  0  0  0  0  0  0
    4.4300   -2.2545    0.0000 C   0  0  0  0  0  0  0  0  0  0  0  0
    3.1158   -1.5128    0.0000 C   0  0  0  0  0  0  0  0  0  0  0  0
    1.8268   -2.2747    0.0000 C   0  0  0  0  0  0  0  0  0  0  0  0
    3.1457   -9.0176    0.0000 N   0  0  0  0  0  0  0  0  0  0  0  0
    5.7290   -9.0234    0.0000 O   0  0  0  0  0  0  0  0  0  0  0  0
    3.1422  -10.5092    0.0000 O   0  0  0  0  0  0  0  0  0  0  0  0
    7.0276   -6.7914    0.0000 C   0  0  0  0  0  0  0  0  0  0  0  0
    8.3227   -6.0517    0.0000 C   0  0  0  0  0  0  0  0  0  0  0  0
    7.0205   -8.2830    0.0000 C   0  0  0  0  0  0  0  0  0  0  0  0
  9 10  1  0  0  0  0
  9 11  1  1  0  0  0
 11 12  1  0  0  0  0
 11 13  2  0  0  0  0
 14 12  1  1  0  0  0
 14 15  1  0  0  0  0
 15 16  1  0  0  0  0
 15 17  2  0  0  0  0
 14 18  1  0  0  0  0
 18 19  1  0  0  0  0
 20 16  1  1  0  0  0
 20 21  1  0  0  0  0
 20 22  1  0  0  0  0
 19 23  2  0  0  0  0
  1  2  2  0  0  0  0
 23 24  1  0  0  0  0
  1  4  1  0  0  0  0
 24 25  2  0  0  0  0
  2  3  1  0  0  0  0
 25 26  1  0  0  0  0
  3  6  2  0  0  0  0
 26 27  2  0  0  0  0
 27 19  1  0  0  0  0
  5  4  2  0  0  0  0
 22 28  1  0  0  0  0
  5  6  1  0  0  0  0
 22 29  2  0  0  0  0
  5 10  1  0  0  0  0
 28 30  1  0  0  0  0
  6  7  1  0  0  0  0
 21 31  1  0  0  0  0
  7  8  1  0  0  0  0
 31 32  1  0  0  0  0
  9  8  1  0  0  0  0
 31 33  1  0  0  0  0
M  END
> <Value>
3.255589655849207

> <Relation>
=

> <SourceURI>
mol:CHEMBL1830663

$$$$

Generated by Molecular Materials Informatics

 21 21  0  0  0  0  0  0  0  0999 V2000
   15.5253  -19.3126    0.0000 O   0  0  0  0  0  0  0  0  0  0  0  0
   15.5253  -13.3011    0.0000 C   0  0  0  0  0  0  0  0  0  0  0  0
   15.5253  -17.8096    0.0000 C   0  0  0  0  0  0  0  0  0  0  0  0
   16.8258  -17.0621    0.0000 C   0  0  0  0  0  0  0  0  0  0  0  0
   19.4270  -17.0621    0.0000 C   0  0  0  0  0  0  0  0  0  0  0  0
   16.8258  -15.5593    0.0000 C   0  0  0  0  0  0  0  0  0  0  0  0
   14.2248  -15.5593    0.0000 C   0  0  0  0  0  0  0  0  0  0  0  0
   20.7352  -17.8096    0.0000 N   0  0  0  0  0  0  0  0  0  0  0  0
   15.5253  -14.8041    0.0000 C   0  0  0  0  0  0  0  0  0  0  0  0
   14.2248  -17.0621    0.0000 N   0  0  0  0  0  0  0  0  0  0  0  0
   12.9242  -17.8096    0.0000 O   0  0  0  0  0  0  0  0  0  0  0  0
   19.4270  -15.5593    0.0000 O   0  0  0  0  0  0  0  0  0  0  0  0
   18.1266  -17.8096    0.0000 N   0  0  0  0  0  0  0  0  0  0  0  0
   22.0276  -17.0560    0.0000 C   0  0  0  0  0  0  0  0  0  0  0  0
   23.3266  -17.7985    0.0000 C   0  0  0  0  0  0  0  0  0  0  0  0
   23.3236  -19.2893    0.0000 C   0  0  0  0  0  0  0  0  0  0  0  0
   24.6210  -20.0315    0.0000 C   0  0  0  0  0  0  0  0  0  0  0  0
   25.9152  -19.2778    0.0000 C   0  0  0  0  0  0  0  0  0  0  0  0
   25.9039  -17.7739    0.0000 C   0  0  0  0  0  0  0  0  0  0  0  0
   24.6054  -17.0385    0.0000 C   0  0  0  0  0  0  0  0  0  0  0  0
   27.1937  -17.0158    0.0000 C   0  0  0  0  0  0  0  0  0  0  0  0
  3  4  1  0  0  0  0
  4 13  1  0  0  0  0
  9  7  1  0  0  0  0
  9  2  1  0  0  0  0
  6  9  1  0  0  0  0
  3 10  1  0  0  0  0
 10 11  1  0  0  0  0
  5 12  2  0  0  0  0
 13  5  1  0  0  0  0
  3  1  2  0  0  0  0
  4  6  1  6  0  0  0
  5  8  1  0  0  0  0
  8 14  1  0  0  0  0
 14 15  1  0  0  0  0
 15 16  2  0  0  0  0
 16 17  1  0  0  0  0
 17 18  2  0  0  0  0
 18 19  1  0  0  0  0
 19 20  2  0  0  0  0
 20 15  1  0  0  0  0
 19 21  1  0  0  0  0
M  END
> <Value>
6.356547323513812

> <Relation>
=

> <SourceURI>
mol:CHEMBL2332522

$$$$

Generated by Molecular Materials Informatics

 21 21  0  0  0  0  0  0  0  0999 V2000
    2.3723  -19.9644    0.0000 O   0  0  0  0  0  0  0  0  0  0  0  0
    2.3723  -13.9536    0.0000 C   0  0  0  0  0  0  0  0  0  0  0  0
    2.3723  -18.4616    0.0000 C   0  0  0  0  0  0  0  0  0  0  0  0
    3.6728  -17.7141    0.0000 C   0  0  0  0  0  0  0  0  0  0  0  0
    6.2736  -17.7141    0.0000 C   0  0  0  0  0  0  0  0  0  0  0  0
    3.6728  -16.2115    0.0000 C   0  0  0  0  0  0  0  0  0  0  0  0
    1.0720  -16.2115    0.0000 C   0  0  0  0  0  0  0  0  0  0  0  0
    7.5816  -18.4616    0.0000 N   0  0  0  0  0  0  0  0  0  0  0  0
    2.3723  -15.4564    0.0000 C   0  0  0  0  0  0  0  0  0  0  0  0
    1.0720  -17.7141    0.0000 N   0  0  0  0  0  0  0  0  0  0  0  0
   -0.2285  -18.4616    0.0000 O   0  0  0  0  0  0  0  0  0  0  0  0
    6.2736  -16.2115    0.0000 O   0  0  0  0  0  0  0  0  0  0  0  0
    4.9733  -18.4616    0.0000 N   0  0  0  0  0  0  0  0  0  0  0  0
    8.8739  -17.7081    0.0000 C   0  0  0  0  0  0  0  0  0  0  0  0
   10.1727  -18.4504    0.0000 C   0  0  0  0  0  0  0  0  0  0  0  0
   10.1698  -19.9411    0.0000 C   0  0  0  0  0  0  0  0  0  0  0  0
   11.4670  -20.6833    0.0000 C   0  0  0  0  0  0  0  0  0  0  0  0
   12.7611  -19.9296    0.0000 C   0  0  0  0  0  0  0  0  0  0  0  0
   12.7499  -18.4259    0.0000 C   0  0  0  0  0  0  0  0  0  0  0  0
   11.4516  -17.6905    0.0000 C   0  0  0  0  0  0  0  0  0  0  0  0
   14.0394  -17.6678    0.0000 Cl  0  0  0  0  0  0  0  0  0  0  0  0
  3  4  1  0  0  0  0
  4 13  1  0  0  0  0
  9  7  1  0  0  0  0
  9  2  1  0  0  0  0
  6  9  1  0  0  0  0
  3 10  1  0  0  0  0
 10 11  1  0  0  0  0
  5 12  2  0  0  0  0
 13  5  1  0  0  0  0
  3  1  2  0  0  0  0
  4  6  1  6  0  0  0
  5  8  1  0  0  0  0
  8 14  1  0  0  0  0
 14 15  1  0  0  0  0
 15 16  2  0  0  0  0
 16 17  1  0  0  0  0
 17 18  2  0  0  0  0
 18 19  1  0  0  0  0
 19 20  2  0  0  0  0
 20 15  1  0  0  0  0
 19 21  1  0  0  0  0
M  END
> <Value>
6.455931955649724

> <Relation>
=

> <SourceURI>
mol:CHEMBL2332521

$$$$

Generated by Molecular Materials Informatics

 21 21  0  0  0  0  0  0  0  0999 V2000
   15.5395  -13.8932    0.0000 O   0  0  0  0  0  0  0  0  0  0  0  0
   15.5395   -7.8826    0.0000 C   0  0  0  0  0  0  0  0  0  0  0  0
   15.5395  -12.3905    0.0000 C   0  0  0  0  0  0  0  0  0  0  0  0
   16.8398  -11.6429    0.0000 C   0  0  0  0  0  0  0  0  0  0  0  0
   19.4406  -11.6429    0.0000 C   0  0  0  0  0  0  0  0  0  0  0  0
   16.8398  -10.1404    0.0000 C   0  0  0  0  0  0  0  0  0  0  0  0
   14.2391  -10.1404    0.0000 C   0  0  0  0  0  0  0  0  0  0  0  0
   20.7486  -12.3905    0.0000 N   0  0  0  0  0  0  0  0  0  0  0  0
   15.5395   -9.3853    0.0000 C   0  0  0  0  0  0  0  0  0  0  0  0
   14.2391  -11.6429    0.0000 N   0  0  0  0  0  0  0  0  0  0  0  0
   12.9389  -12.3905    0.0000 O   0  0  0  0  0  0  0  0  0  0  0  0
   19.4406  -10.1404    0.0000 O   0  0  0  0  0  0  0  0  0  0  0  0
   18.1402  -12.3905    0.0000 N   0  0  0  0  0  0  0  0  0  0  0  0
   22.0407  -11.6368    0.0000 C   0  0  0  0  0  0  0  0  0  0  0  0
   23.3395  -12.3791    0.0000 C   0  0  0  0  0  0  0  0  0  0  0  0
   23.3364  -13.8697    0.0000 C   0  0  0  0  0  0  0  0  0  0  0  0
   24.6337  -14.6120    0.0000 C   0  0  0  0  0  0  0  0  0  0  0  0
   25.9277  -13.8584    0.0000 C   0  0  0  0  0  0  0  0  0  0  0  0
   25.9164  -12.3548    0.0000 C   0  0  0  0  0  0  0  0  0  0  0  0
   24.6181  -11.6193    0.0000 C   0  0  0  0  0  0  0  0  0  0  0  0
   24.6026  -10.1235    0.0000 C   0  0  0  0  0  0  0  0  0  0  0  0
  3  4  1  0  0  0  0
  4 13  1  0  0  0  0
  9  7  1  0  0  0  0
  9  2  1  0  0  0  0
  6  9  1  0  0  0  0
  3 10  1  0  0  0  0
 10 11  1  0  0  0  0
  5 12  2  0  0  0  0
 13  5  1  0  0  0  0
  3  1  2  0  0  0  0
  4  6  1  6  0  0  0
  5  8  1  0  0  0  0
  8 14  1  0  0  0  0
 14 15  1  0  0  0  0
 15 16  2  0  0  0  0
 16 17  1  0  0  0  0
 17 18  2  0  0  0  0
 18 19  1  0  0  0  0
 19 20  2  0  0  0  0
 20 15  1  0  0  0  0
 20 21  1  0  0  0  0
M  END
> <Value>
6.045757490560675

> <Relation>
=

> <SourceURI>
mol:CHEMBL2332520

$$$$

Generated by Molecular Materials Informatics

 21 21  0  0  0  0  0  0  0  0999 V2000
    2.3856  -14.5456    0.0000 O   0  0  0  0  0  0  0  0  0  0  0  0
    2.3856   -8.5343    0.0000 C   0  0  0  0  0  0  0  0  0  0  0  0
    2.3856  -13.0427    0.0000 C   0  0  0  0  0  0  0  0  0  0  0  0
    3.6860  -12.2950    0.0000 C   0  0  0  0  0  0  0  0  0  0  0  0
    6.2871  -12.2950    0.0000 C   0  0  0  0  0  0  0  0  0  0  0  0
    3.6860  -10.7923    0.0000 C   0  0  0  0  0  0  0  0  0  0  0  0
    1.0852  -10.7923    0.0000 C   0  0  0  0  0  0  0  0  0  0  0  0
    7.5952  -13.0427    0.0000 N   0  0  0  0  0  0  0  0  0  0  0  0
    2.3856  -10.0372    0.0000 C   0  0  0  0  0  0  0  0  0  0  0  0
    1.0852  -12.2950    0.0000 N   0  0  0  0  0  0  0  0  0  0  0  0
   -0.2153  -13.0427    0.0000 O   0  0  0  0  0  0  0  0  0  0  0  0
    6.2871  -10.7923    0.0000 O   0  0  0  0  0  0  0  0  0  0  0  0
    4.9867  -13.0427    0.0000 N   0  0  0  0  0  0  0  0  0  0  0  0
    8.8875  -12.2890    0.0000 C   0  0  0  0  0  0  0  0  0  0  0  0
   10.1864  -13.0315    0.0000 C   0  0  0  0  0  0  0  0  0  0  0  0
   10.1835  -14.5221    0.0000 C   0  0  0  0  0  0  0  0  0  0  0  0
   11.4808  -15.2645    0.0000 C   0  0  0  0  0  0  0  0  0  0  0  0
   12.7749  -14.5108    0.0000 C   0  0  0  0  0  0  0  0  0  0  0  0
   12.7636  -13.0070    0.0000 C   0  0  0  0  0  0  0  0  0  0  0  0
   11.4652  -12.2714    0.0000 C   0  0  0  0  0  0  0  0  0  0  0  0
   11.4496  -10.7755    0.0000 Br  0  0  0  0  0  0  0  0  0  0  0  0
  3  4  1  0  0  0  0
  4 13  1  0  0  0  0
  9  7  1  0  0  0  0
  9  2  1  0  0  0  0
  6  9  1  0  0  0  0
  3 10  1  0  0  0  0
 10 11  1  0  0  0  0
  5 12  2  0  0  0  0
 13  5  1  0  0  0  0
  3  1  2  0  0  0  0
  4  6  1  6  0  0  0
  5  8  1  0  0  0  0
  8 14  1  0  0  0  0
 14 15  1  0  0  0  0
 15 16  2  0  0  0  0
 16 17  1  0  0  0  0
 17 18  2  0  0  0  0
 18 19  1  0  0  0  0
 19 20  2  0  0  0  0
 20 15  1  0  0  0  0
 20 21  1  0  0  0  0
M  END
> <Value>
6.886056647693163

> <Relation>
=

> <SourceURI>
mol:CHEMBL2332519

$$$$

Generated by Molecular Materials Informatics

 21 21  0  0  0  0  0  0  0  0999 V2000
   13.4672   -6.9018    0.0000 O   0  0  0  0  0  0  0  0  0  0  0  0
   13.4672   -0.8907    0.0000 C   0  0  0  0  0  0  0  0  0  0  0  0
   13.4672   -5.3991    0.0000 C   0  0  0  0  0  0  0  0  0  0  0  0
   14.7676   -4.6514    0.0000 C   0  0  0  0  0  0  0  0  0  0  0  0
   17.3687   -4.6514    0.0000 C   0  0  0  0  0  0  0  0  0  0  0  0
   14.7676   -3.1487    0.0000 C   0  0  0  0  0  0  0  0  0  0  0  0
   12.1669   -3.1487    0.0000 C   0  0  0  0  0  0  0  0  0  0  0  0
   18.6768   -5.3991    0.0000 N   0  0  0  0  0  0  0  0  0  0  0  0
   13.4672   -2.3936    0.0000 C   0  0  0  0  0  0  0  0  0  0  0  0
   12.1669   -4.6514    0.0000 N   0  0  0  0  0  0  0  0  0  0  0  0
   10.8663   -5.3991    0.0000 O   0  0  0  0  0  0  0  0  0  0  0  0
   17.3687   -3.1487    0.0000 O   0  0  0  0  0  0  0  0  0  0  0  0
   16.0683   -5.3991    0.0000 N   0  0  0  0  0  0  0  0  0  0  0  0
   19.9691   -4.6454    0.0000 C   0  0  0  0  0  0  0  0  0  0  0  0
   21.2680   -5.3877    0.0000 C   0  0  0  0  0  0  0  0  0  0  0  0
   21.2651   -6.8785    0.0000 C   0  0  0  0  0  0  0  0  0  0  0  0
   22.5624   -7.6209    0.0000 C   0  0  0  0  0  0  0  0  0  0  0  0
   23.8565   -6.8670    0.0000 C   0  0  0  0  0  0  0  0  0  0  0  0
   23.8452   -5.3632    0.0000 C   0  0  0  0  0  0  0  0  0  0  0  0
   22.5468   -4.6278    0.0000 C   0  0  0  0  0  0  0  0  0  0  0  0
   22.5312   -3.1317    0.0000 Cl  0  0  0  0  0  0  0  0  0  0  0  0
  3  4  1  0  0  0  0
  4 13  1  0  0  0  0
  9  7  1  0  0  0  0
  9  2  1  0  0  0  0
  6  9  1  0  0  0  0
  3 10  1  0  0  0  0
 10 11  1  0  0  0  0
  5 12  2  0  0  0  0
 13  5  1  0  0  0  0
  3  1  2  0  0  0  0
  4  6  1  6  0  0  0
  5  8  1  0  0  0  0
  8 14  1  0  0  0  0
 14 15  1  0  0  0  0
 15 16  2  0  0  0  0
 16 17  1  0  0  0  0
 17 18  2  0  0  0  0
 18 19  1  0  0  0  0
 19 20  2  0  0  0  0
 20 15  1  0  0  0  0
 20 21  1  0  0  0  0
M  END
> <Value>
6.657577319177793

> <Relation>
=

> <SourceURI>
mol:CHEMBL2332518

$$$$

Generated by Molecular Materials Informatics

 21 21  0  0  0  0  0  0  0  0999 V2000
    2.1384   -6.4683    0.0000 O   0  0  0  0  0  0  0  0  0  0  0  0
    2.1384   -0.4577    0.0000 C   0  0  0  0  0  0  0  0  0  0  0  0
    2.1384   -4.9656    0.0000 C   0  0  0  0  0  0  0  0  0  0  0  0
    3.4387   -4.2180    0.0000 C   0  0  0  0  0  0  0  0  0  0  0  0
    6.0395   -4.2180    0.0000 C   0  0  0  0  0  0  0  0  0  0  0  0
    3.4387   -2.7155    0.0000 C   0  0  0  0  0  0  0  0  0  0  0  0
    0.8380   -2.7155    0.0000 C   0  0  0  0  0  0  0  0  0  0  0  0
    7.3473   -4.9656    0.0000 N   0  0  0  0  0  0  0  0  0  0  0  0
    2.1384   -1.9604    0.0000 C   0  0  0  0  0  0  0  0  0  0  0  0
    0.8380   -4.2180    0.0000 N   0  0  0  0  0  0  0  0  0  0  0  0
   -0.4622   -4.9656    0.0000 O   0  0  0  0  0  0  0  0  0  0  0  0
    6.0395   -2.7155    0.0000 O   0  0  0  0  0  0  0  0  0  0  0  0
    4.7391   -4.9656    0.0000 N   0  0  0  0  0  0  0  0  0  0  0  0
    8.6396   -4.2119    0.0000 C   0  0  0  0  0  0  0  0  0  0  0  0
    9.9382   -4.9544    0.0000 C   0  0  0  0  0  0  0  0  0  0  0  0
    9.9353   -6.4448    0.0000 C   0  0  0  0  0  0  0  0  0  0  0  0
   11.2326   -7.1871    0.0000 C   0  0  0  0  0  0  0  0  0  0  0  0
   12.5266   -6.4335    0.0000 C   0  0  0  0  0  0  0  0  0  0  0  0
   12.5153   -4.9299    0.0000 C   0  0  0  0  0  0  0  0  0  0  0  0
   11.2170   -4.1944    0.0000 C   0  0  0  0  0  0  0  0  0  0  0  0
   11.2015   -2.6986    0.0000 F   0  0  0  0  0  0  0  0  0  0  0  0
  3  4  1  0  0  0  0
  4 13  1  0  0  0  0
  9  7  1  0  0  0  0
  9  2  1  0  0  0  0
  6  9  1  0  0  0  0
  3 10  1  0  0  0  0
 10 11  1  0  0  0  0
  5 12  2  0  0  0  0
 13  5  1  0  0  0  0
  3  1  2  0  0  0  0
  4  6  1  6  0  0  0
  5  8  1  0  0  0  0
  8 14  1  0  0  0  0
 14 15  1  0  0  0  0
 15 16  2  0  0  0  0
 16 17  1  0  0  0  0
 17 18  2  0  0  0  0
 18 19  1  0  0  0  0
 19 20  2  0  0  0  0
 20 15  1  0  0  0  0
 20 21  1  0  0  0  0
M  END
> <Value>
5.860120913598763

> <Relation>
=

> <SourceURI>
mol:CHEMBL2332517

$$$$

Generated by Molecular Materials Informatics

 20 20  0  0  0  0  0  0  0  0999 V2000
    1.8612  -21.1448    0.0000 O   0  0  0  0  0  0  0  0  0  0  0  0
    8.3666  -18.8961    0.0000 C   0  0  0  0  0  0  0  0  0  0  0  0
    1.8612  -15.1382    0.0000 C   0  0  0  0  0  0  0  0  0  0  0  0
    1.8612  -19.6433    0.0000 C   0  0  0  0  0  0  0  0  0  0  0  0
    3.1609  -18.8961    0.0000 C   0  0  0  0  0  0  0  0  0  0  0  0
    5.7601  -18.8961    0.0000 C   0  0  0  0  0  0  0  0  0  0  0  0
   10.9633  -17.4019    0.0000 C   0  0  0  0  0  0  0  0  0  0  0  0
    3.1609  -17.3946    0.0000 C   0  0  0  0  0  0  0  0  0  0  0  0
    9.6545  -16.6474    0.0000 C   0  0  0  0  0  0  0  0  0  0  0  0
    0.5618  -17.3946    0.0000 C   0  0  0  0  0  0  0  0  0  0  0  0
    9.6638  -19.6511    0.0000 C   0  0  0  0  0  0  0  0  0  0  0  0
    8.3613  -17.4053    0.0000 C   0  0  0  0  0  0  0  0  0  0  0  0
    7.0670  -19.6433    0.0000 N   0  0  0  0  0  0  0  0  0  0  0  0
    1.8612  -16.6399    0.0000 C   0  0  0  0  0  0  0  0  0  0  0  0
    0.5618  -18.8961    0.0000 N   0  0  0  0  0  0  0  0  0  0  0  0
   10.9623  -18.9051    0.0000 C   0  0  0  0  0  0  0  0  0  0  0  0
   -0.7376  -19.6433    0.0000 O   0  0  0  0  0  0  0  0  0  0  0  0
    5.7601  -17.3946    0.0000 O   0  0  0  0  0  0  0  0  0  0  0  0
    4.4605  -19.6433    0.0000 N   0  0  0  0  0  0  0  0  0  0  0  0
   12.2561  -19.6544    0.0000 O   0  0  0  0  0  0  0  0  0  0  0  0
  4  5  1  0  0  0  0
  7  9  1  0  0  0  0
  5 19  1  0  0  0  0
  9 12  2  0  0  0  0
 13  2  1  0  0  0  0
 12  2  1  0  0  0  0
 14 10  1  0  0  0  0
 14  3  1  0  0  0  0
  8 14  1  0  0  0  0
  4 15  1  0  0  0  0
 15 17  1  0  0  0  0
 11 16  1  0  0  0  0
  6 18  2  0  0  0  0
 19  6  1  0  0  0  0
 16  7  2  0  0  0  0
  4  1  2  0  0  0  0
  5  8  1  6  0  0  0
  6 13  1  0  0  0  0
  2 11  2  0  0  0  0
 16 20  1  0  0  0  0
M  END
> <Value>
5.769551078621726

> <Relation>
=

> <SourceURI>
mol:CHEMBL2332516

$$$$

Generated by Molecular Materials Informatics

 23 23  0  0  0  0  0  0  0  0999 V2000
   12.1692  -16.7308    0.0000 O   0  0  0  0  0  0  0  0  0  0  0  0
   18.6782  -14.4807    0.0000 C   0  0  0  0  0  0  0  0  0  0  0  0
   12.1692  -10.7205    0.0000 C   0  0  0  0  0  0  0  0  0  0  0  0
   12.1692  -15.2282    0.0000 C   0  0  0  0  0  0  0  0  0  0  0  0
   13.4693  -14.4807    0.0000 C   0  0  0  0  0  0  0  0  0  0  0  0
   16.0701  -14.4807    0.0000 C   0  0  0  0  0  0  0  0  0  0  0  0
   21.2765  -12.9856    0.0000 C   0  0  0  0  0  0  0  0  0  0  0  0
   13.4693  -12.9784    0.0000 C   0  0  0  0  0  0  0  0  0  0  0  0
   19.9671  -12.2307    0.0000 C   0  0  0  0  0  0  0  0  0  0  0  0
   10.8687  -12.9784    0.0000 C   0  0  0  0  0  0  0  0  0  0  0  0
   19.9762  -15.2362    0.0000 C   0  0  0  0  0  0  0  0  0  0  0  0
   18.6729  -12.9889    0.0000 C   0  0  0  0  0  0  0  0  0  0  0  0
   17.3779  -15.2282    0.0000 N   0  0  0  0  0  0  0  0  0  0  0  0
   12.1692  -12.2232    0.0000 C   0  0  0  0  0  0  0  0  0  0  0  0
   10.8687  -14.4807    0.0000 N   0  0  0  0  0  0  0  0  0  0  0  0
   21.2756  -14.4898    0.0000 C   0  0  0  0  0  0  0  0  0  0  0  0
    9.5685  -15.2282    0.0000 O   0  0  0  0  0  0  0  0  0  0  0  0
   16.0701  -12.9784    0.0000 O   0  0  0  0  0  0  0  0  0  0  0  0
   14.7698  -15.2282    0.0000 N   0  0  0  0  0  0  0  0  0  0  0  0
   22.5699  -15.2395    0.0000 C   0  0  0  0  0  0  0  0  0  0  0  0
   22.5679  -16.7355    0.0000 F   0  0  0  0  0  0  0  0  0  0  0  0
   23.8666  -14.4935    0.0000 F   0  0  0  0  0  0  0  0  0  0  0  0
   23.8551  -15.9804    0.0000 F   0  0  0  0  0  0  0  0  0  0  0  0
  4  5  1  0  0  0  0
  7  9  1  0  0  0  0
  5 19  1  0  0  0  0
  9 12  2  0  0  0  0
 13  2  1  0  0  0  0
 12  2  1  0  0  0  0
 14 10  1  0  0  0  0
 14  3  1  0  0  0  0
  8 14  1  0  0  0  0
  4 15  1  0  0  0  0
 15 17  1  0  0  0  0
 11 16  1  0  0  0  0
  6 18  2  0  0  0  0
 19  6  1  0  0  0  0
 16  7  2  0  0  0  0
  4  1  2  0  0  0  0
  5  8  1  6  0  0  0
  6 13  1  0  0  0  0
  2 11  2  0  0  0  0
 16 20  1  0  0  0  0
 20 21  1  0  0  0  0
 20 22  1  0  0  0  0
 20 23  1  0  0  0  0
M  END
> <Value>
5.705533773838407

> <Relation>
=

> <SourceURI>
mol:CHEMBL2332515

$$$$

Generated by Molecular Materials Informatics

 21 21  0  0  0  0  0  0  0  0999 V2000
    1.3635  -16.2304    0.0000 O   0  0  0  0  0  0  0  0  0  0  0  0
    7.8731  -13.9801    0.0000 C   0  0  0  0  0  0  0  0  0  0  0  0
    1.3635  -10.2196    0.0000 C   0  0  0  0  0  0  0  0  0  0  0  0
    1.3635  -14.7276    0.0000 C   0  0  0  0  0  0  0  0  0  0  0  0
    2.6638  -13.9801    0.0000 C   0  0  0  0  0  0  0  0  0  0  0  0
    5.2648  -13.9801    0.0000 C   0  0  0  0  0  0  0  0  0  0  0  0
   10.4717  -12.4848    0.0000 C   0  0  0  0  0  0  0  0  0  0  0  0
    2.6638  -12.4775    0.0000 C   0  0  0  0  0  0  0  0  0  0  0  0
    9.1621  -11.7299    0.0000 C   0  0  0  0  0  0  0  0  0  0  0  0
    0.0629  -12.4775    0.0000 C   0  0  0  0  0  0  0  0  0  0  0  0
    9.1712  -14.7356    0.0000 C   0  0  0  0  0  0  0  0  0  0  0  0
    7.8680  -12.4881    0.0000 C   0  0  0  0  0  0  0  0  0  0  0  0
    6.5728  -14.7276    0.0000 N   0  0  0  0  0  0  0  0  0  0  0  0
    1.3635  -11.7224    0.0000 C   0  0  0  0  0  0  0  0  0  0  0  0
    0.0629  -13.9801    0.0000 N   0  0  0  0  0  0  0  0  0  0  0  0
   10.4708  -13.9891    0.0000 C   0  0  0  0  0  0  0  0  0  0  0  0
   -1.2374  -14.7276    0.0000 O   0  0  0  0  0  0  0  0  0  0  0  0
    5.2648  -12.4775    0.0000 O   0  0  0  0  0  0  0  0  0  0  0  0
    3.9643  -14.7276    0.0000 N   0  0  0  0  0  0  0  0  0  0  0  0
   11.7653  -14.7389    0.0000 O   0  0  0  0  0  0  0  0  0  0  0  0
   11.7633  -16.2349    0.0000 C   0  0  0  0  0  0  0  0  0  0  0  0
  4  5  1  0  0  0  0
  7  9  1  0  0  0  0
  5 19  1  0  0  0  0
  9 12  2  0  0  0  0
 13  2  1  0  0  0  0
 12  2  1  0  0  0  0
 14 10  1  0  0  0  0
 14  3  1  0  0  0  0
  8 14  1  0  0  0  0
  4 15  1  0  0  0  0
 15 17  1  0  0  0  0
 11 16  1  0  0  0  0
  6 18  2  0  0  0  0
 19  6  1  0  0  0  0
 16  7  2  0  0  0  0
  4  1  2  0  0  0  0
  5  8  1  6  0  0  0
  6 13  1  0  0  0  0
  2 11  2  0  0  0  0
 16 20  1  0  0  0  0
 20 21  1  0  0  0  0
M  END
> <Value>
5.866461091629782

> <Relation>
=

> <SourceURI>
mol:CHEMBL2332514

$$$$

Generated by Molecular Materials Informatics

 20 20  0  0  0  0  0  0  0  0999 V2000
   12.0968   -9.8487    0.0000 O   0  0  0  0  0  0  0  0  0  0  0  0
   18.6022   -7.6000    0.0000 C   0  0  0  0  0  0  0  0  0  0  0  0
   12.0968   -3.8419    0.0000 C   0  0  0  0  0  0  0  0  0  0  0  0
   12.0968   -8.3469    0.0000 C   0  0  0  0  0  0  0  0  0  0  0  0
   13.3963   -7.6000    0.0000 C   0  0  0  0  0  0  0  0  0  0  0  0
   15.9956   -7.6000    0.0000 C   0  0  0  0  0  0  0  0  0  0  0  0
   21.1991   -6.1057    0.0000 C   0  0  0  0  0  0  0  0  0  0  0  0
   13.3963   -6.0983    0.0000 C   0  0  0  0  0  0  0  0  0  0  0  0
   19.8903   -5.3512    0.0000 C   0  0  0  0  0  0  0  0  0  0  0  0
   10.7972   -6.0983    0.0000 C   0  0  0  0  0  0  0  0  0  0  0  0
   19.8995   -8.3550    0.0000 C   0  0  0  0  0  0  0  0  0  0  0  0
   18.5971   -6.1089    0.0000 C   0  0  0  0  0  0  0  0  0  0  0  0
   17.3025   -8.3469    0.0000 N   0  0  0  0  0  0  0  0  0  0  0  0
   12.0968   -5.3437    0.0000 C   0  0  0  0  0  0  0  0  0  0  0  0
   10.7972   -7.6000    0.0000 N   0  0  0  0  0  0  0  0  0  0  0  0
   21.1982   -7.6089    0.0000 C   0  0  0  0  0  0  0  0  0  0  0  0
    9.4977   -8.3469    0.0000 O   0  0  0  0  0  0  0  0  0  0  0  0
   15.9956   -6.0983    0.0000 O   0  0  0  0  0  0  0  0  0  0  0  0
   14.6959   -8.3469    0.0000 N   0  0  0  0  0  0  0  0  0  0  0  0
   22.4918   -8.3583    0.0000 C   0  0  0  0  0  0  0  0  0  0  0  0
  4  5  1  0  0  0  0
  7  9  1  0  0  0  0
  5 19  1  0  0  0  0
  9 12  2  0  0  0  0
 13  2  1  0  0  0  0
 12  2  1  0  0  0  0
 14 10  1  0  0  0  0
 14  3  1  0  0  0  0
  8 14  1  0  0  0  0
  4 15  1  0  0  0  0
 15 17  1  0  0  0  0
 11 16  1  0  0  0  0
  6 18  2  0  0  0  0
 19  6  1  0  0  0  0
 16  7  2  0  0  0  0
  4  1  2  0  0  0  0
  5  8  1  6  0  0  0
  6 13  1  0  0  0  0
  2 11  2  0  0  0  0
 16 20  1  0  0  0  0
M  END
> <Value>
6.619788758288394

> <Relation>
=

> <SourceURI>
mol:CHEMBL2332513

$$$$

Generated by Molecular Materials Informatics

 20 20  0  0  0  0  0  0  0  0999 V2000
    1.1723  -10.0054    0.0000 O   0  0  0  0  0  0  0  0  0  0  0  0
    7.6772   -7.7566    0.0000 C   0  0  0  0  0  0  0  0  0  0  0  0
    1.1723   -3.9989    0.0000 C   0  0  0  0  0  0  0  0  0  0  0  0
    1.1723   -8.5037    0.0000 C   0  0  0  0  0  0  0  0  0  0  0  0
    2.4717   -7.7566    0.0000 C   0  0  0  0  0  0  0  0  0  0  0  0
    5.0708   -7.7566    0.0000 C   0  0  0  0  0  0  0  0  0  0  0  0
   10.2739   -6.2625    0.0000 C   0  0  0  0  0  0  0  0  0  0  0  0
    2.4717   -6.2552    0.0000 C   0  0  0  0  0  0  0  0  0  0  0  0
    8.9652   -5.5081    0.0000 C   0  0  0  0  0  0  0  0  0  0  0  0
   -0.1272   -6.2552    0.0000 C   0  0  0  0  0  0  0  0  0  0  0  0
    8.9743   -8.5116    0.0000 C   0  0  0  0  0  0  0  0  0  0  0  0
    7.6720   -6.2659    0.0000 C   0  0  0  0  0  0  0  0  0  0  0  0
    6.3778   -8.5037    0.0000 N   0  0  0  0  0  0  0  0  0  0  0  0
    1.1723   -5.5006    0.0000 C   0  0  0  0  0  0  0  0  0  0  0  0
   -0.1272   -7.7566    0.0000 N   0  0  0  0  0  0  0  0  0  0  0  0
   10.2730   -7.7656    0.0000 C   0  0  0  0  0  0  0  0  0  0  0  0
   -1.4266   -8.5037    0.0000 O   0  0  0  0  0  0  0  0  0  0  0  0
    5.0708   -6.2552    0.0000 O   0  0  0  0  0  0  0  0  0  0  0  0
    3.7714   -8.5037    0.0000 N   0  0  0  0  0  0  0  0  0  0  0  0
   11.5665   -8.5149    0.0000 Br  0  0  0  0  0  0  0  0  0  0  0  0
  4  5  1  0  0  0  0
  7  9  1  0  0  0  0
  5 19  1  0  0  0  0
  9 12  2  0  0  0  0
 13  2  1  0  0  0  0
 12  2  1  0  0  0  0
 14 10  1  0  0  0  0
 14  3  1  0  0  0  0
  8 14  1  0  0  0  0
  4 15  1  0  0  0  0
 15 17  1  0  0  0  0
 11 16  1  0  0  0  0
  6 18  2  0  0  0  0
 19  6  1  0  0  0  0
 16  7  2  0  0  0  0
  4  1  2  0  0  0  0
  5  8  1  6  0  0  0
  6 13  1  0  0  0  0
  2 11  2  0  0  0  0
 16 20  1  0  0  0  0
M  END
> <Value>
6.236572006437063

> <Relation>
=

> <SourceURI>
mol:CHEMBL2332512

$$$$

Generated by Molecular Materials Informatics

 20 20  0  0  0  0  0  0  0  0999 V2000
   11.6022   -5.1019    0.0000 O   0  0  0  0  0  0  0  0  0  0  0  0
   18.1064   -2.8533    0.0000 C   0  0  0  0  0  0  0  0  0  0  0  0
   11.6022    0.9039    0.0000 C   0  0  0  0  0  0  0  0  0  0  0  0
   11.6022   -3.6004    0.0000 C   0  0  0  0  0  0  0  0  0  0  0  0
   12.9014   -2.8533    0.0000 C   0  0  0  0  0  0  0  0  0  0  0  0
   15.5003   -2.8533    0.0000 C   0  0  0  0  0  0  0  0  0  0  0  0
   20.7029   -1.3595    0.0000 C   0  0  0  0  0  0  0  0  0  0  0  0
   12.9014   -1.3522    0.0000 C   0  0  0  0  0  0  0  0  0  0  0  0
   19.3944   -0.6051    0.0000 C   0  0  0  0  0  0  0  0  0  0  0  0
   10.3029   -1.3522    0.0000 C   0  0  0  0  0  0  0  0  0  0  0  0
   19.4037   -3.6084    0.0000 C   0  0  0  0  0  0  0  0  0  0  0  0
   18.1013   -1.3628    0.0000 C   0  0  0  0  0  0  0  0  0  0  0  0
   16.8072   -3.6004    0.0000 N   0  0  0  0  0  0  0  0  0  0  0  0
   11.6022   -0.5976    0.0000 C   0  0  0  0  0  0  0  0  0  0  0  0
   10.3029   -2.8533    0.0000 N   0  0  0  0  0  0  0  0  0  0  0  0
   20.7020   -2.8625    0.0000 C   0  0  0  0  0  0  0  0  0  0  0  0
    9.0035   -3.6004    0.0000 O   0  0  0  0  0  0  0  0  0  0  0  0
   15.5003   -1.3522    0.0000 O   0  0  0  0  0  0  0  0  0  0  0  0
   14.2010   -3.6004    0.0000 N   0  0  0  0  0  0  0  0  0  0  0  0
   21.9954   -3.6117    0.0000 Cl  0  0  0  0  0  0  0  0  0  0  0  0
  4  5  1  0  0  0  0
  7  9  1  0  0  0  0
  5 19  1  0  0  0  0
  9 12  2  0  0  0  0
 13  2  1  0  0  0  0
 12  2  1  0  0  0  0
 14 10  1  0  0  0  0
 14  3  1  0  0  0  0
  8 14  1  0  0  0  0
  4 15  1  0  0  0  0
 15 17  1  0  0  0  0
 11 16  1  0  0  0  0
  6 18  2  0  0  0  0
 19  6  1  0  0  0  0
 16  7  2  0  0  0  0
  4  1  2  0  0  0  0
  5  8  1  6  0  0  0
  6 13  1  0  0  0  0
  2 11  2  0  0  0  0
 16 20  1  0  0  0  0
M  END
> <Value>
5.779891911959945

> <Relation>
=

> <SourceURI>
mol:CHEMBL2332511

$$$$

Generated by Molecular Materials Informatics

 20 20  0  0  0  0  0  0  0  0999 V2000
    0.6770   -5.2590    0.0000 O   0  0  0  0  0  0  0  0  0  0  0  0
    7.1819   -3.0104    0.0000 C   0  0  0  0  0  0  0  0  0  0  0  0
    0.6770    0.7474    0.0000 C   0  0  0  0  0  0  0  0  0  0  0  0
    0.6770   -3.7575    0.0000 C   0  0  0  0  0  0  0  0  0  0  0  0
    1.9766   -3.0104    0.0000 C   0  0  0  0  0  0  0  0  0  0  0  0
    4.5755   -3.0104    0.0000 C   0  0  0  0  0  0  0  0  0  0  0  0
    9.7786   -1.5162    0.0000 C   0  0  0  0  0  0  0  0  0  0  0  0
    1.9766   -1.5089    0.0000 C   0  0  0  0  0  0  0  0  0  0  0  0
    8.4699   -0.7618    0.0000 C   0  0  0  0  0  0  0  0  0  0  0  0
   -0.6223   -1.5089    0.0000 C   0  0  0  0  0  0  0  0  0  0  0  0
    8.4792   -3.7653    0.0000 C   0  0  0  0  0  0  0  0  0  0  0  0
    7.1767   -1.5195    0.0000 C   0  0  0  0  0  0  0  0  0  0  0  0
    5.8825   -3.7575    0.0000 N   0  0  0  0  0  0  0  0  0  0  0  0
    0.6770   -0.7543    0.0000 C   0  0  0  0  0  0  0  0  0  0  0  0
   -0.6223   -3.0104    0.0000 N   0  0  0  0  0  0  0  0  0  0  0  0
    9.7777   -3.0194    0.0000 C   0  0  0  0  0  0  0  0  0  0  0  0
   -1.9219   -3.7575    0.0000 O   0  0  0  0  0  0  0  0  0  0  0  0
    4.5755   -1.5089    0.0000 O   0  0  0  0  0  0  0  0  0  0  0  0
    3.2761   -3.7575    0.0000 N   0  0  0  0  0  0  0  0  0  0  0  0
   11.0712   -3.7686    0.0000 F   0  0  0  0  0  0  0  0  0  0  0  0
  4  5  1  0  0  0  0
  7  9  1  0  0  0  0
  5 19  1  0  0  0  0
  9 12  2  0  0  0  0
 13  2  1  0  0  0  0
 12  2  1  0  0  0  0
 14 10  1  0  0  0  0
 14  3  1  0  0  0  0
  8 14  1  0  0  0  0
  4 15  1  0  0  0  0
 15 17  1  0  0  0  0
 11 16  1  0  0  0  0
  6 18  2  0  0  0  0
 19  6  1  0  0  0  0
 16  7  2  0  0  0  0
  4  1  2  0  0  0  0
  5  8  1  6  0  0  0
  6 13  1  0  0  0  0
  2 11  2  0  0  0  0
 16 20  1  0  0  0  0
M  END
> <Value>
5.721246399047171

> <Relation>
=

> <SourceURI>
mol:CHEMBL2332510

$$$$

Generated by Molecular Materials Informatics

 20 20  0  0  0  0  0  0  0  0999 V2000
    1.8694  -24.7965    0.0000 C   0  0  0  0  0  0  0  0  0  0  0  0
    3.1684  -24.0465    0.0000 C   0  0  0  0  0  0  0  0  0  0  0  0
    0.5703  -24.0465    0.0000 N   0  0  0  0  0  0  0  0  0  0  0  0
    1.8694  -26.2965    0.0000 O   0  0  0  0  0  0  0  0  0  0  0  0
    4.4674  -24.7965    0.0000 N   0  0  0  0  0  0  0  0  0  0  0  0
    5.7665  -24.0465    0.0000 C   0  0  0  0  0  0  0  0  0  0  0  0
    7.0655  -24.7965    0.0000 N   0  0  0  0  0  0  0  0  0  0  0  0
    5.7665  -22.5464    0.0000 O   0  0  0  0  0  0  0  0  0  0  0  0
    8.3645  -24.0465    0.0000 C   0  0  0  0  0  0  0  0  0  0  0  0
    9.6614  -24.8042    0.0000 C   0  0  0  0  0  0  0  0  0  0  0  0
   10.9597  -24.0555    0.0000 C   0  0  0  0  0  0  0  0  0  0  0  0
   10.9604  -22.5538    0.0000 C   0  0  0  0  0  0  0  0  0  0  0  0
    9.6522  -21.8041    0.0000 C   0  0  0  0  0  0  0  0  0  0  0  0
    8.3594  -22.5573    0.0000 C   0  0  0  0  0  0  0  0  0  0  0  0
    3.1684  -22.5464    0.0000 C   0  0  0  0  0  0  0  0  0  0  0  0
    1.8694  -21.7964    0.0000 C   0  0  0  0  0  0  0  0  0  0  0  0
    1.8694  -20.2964    0.0000 C   0  0  0  0  0  0  0  0  0  0  0  0
    0.5703  -22.5464    0.0000 C   0  0  0  0  0  0  0  0  0  0  0  0
   -0.7287  -24.7965    0.0000 O   0  0  0  0  0  0  0  0  0  0  0  0
    9.6571  -26.3042    0.0000 O   0  0  0  0  0  0  0  0  0  0  0  0
  1  2  1  0  0  0  0
  1  3  1  0  0  0  0
  1  4  2  0  0  0  0
  2  5  1  0  0  0  0
  5  6  1  0  0  0  0
  6  7  1  0  0  0  0
  6  8  2  0  0  0  0
  7  9  1  0  0  0  0
  9 10  2  0  0  0  0
 10 11  1  0  0  0  0
 11 12  2  0  0  0  0
 12 13  1  0  0  0  0
 13 14  2  0  0  0  0
 14  9  1  0  0  0  0
  2 15  1  6  0  0  0
 15 16  1  0  0  0  0
 16 17  1  0  0  0  0
 16 18  1  0  0  0  0
  3 19  1  0  0  0  0
 10 20  1  0  0  0  0
M  END
> <Value>
4.924453038607469

> <Relation>
=

> <SourceURI>
mol:CHEMBL2332529

$$$$

Generated by Molecular Materials Informatics

 23 23  0  0  0  0  0  0  0  0999 V2000
   13.5889  -18.6856    0.0000 C   0  0  0  0  0  0  0  0  0  0  0  0
   14.8880  -17.9356    0.0000 C   0  0  0  0  0  0  0  0  0  0  0  0
   12.2898  -17.9356    0.0000 N   0  0  0  0  0  0  0  0  0  0  0  0
   13.5889  -20.1856    0.0000 O   0  0  0  0  0  0  0  0  0  0  0  0
   16.1870  -18.6856    0.0000 N   0  0  0  0  0  0  0  0  0  0  0  0
   17.4861  -17.9356    0.0000 C   0  0  0  0  0  0  0  0  0  0  0  0
   18.7850  -18.6856    0.0000 N   0  0  0  0  0  0  0  0  0  0  0  0
   17.4861  -16.4356    0.0000 O   0  0  0  0  0  0  0  0  0  0  0  0
   20.0841  -17.9356    0.0000 C   0  0  0  0  0  0  0  0  0  0  0  0
   21.3808  -18.6933    0.0000 C   0  0  0  0  0  0  0  0  0  0  0  0
   22.6790  -17.9445    0.0000 C   0  0  0  0  0  0  0  0  0  0  0  0
   22.6799  -16.4431    0.0000 C   0  0  0  0  0  0  0  0  0  0  0  0
   21.3717  -15.6933    0.0000 C   0  0  0  0  0  0  0  0  0  0  0  0
   20.0788  -16.4464    0.0000 C   0  0  0  0  0  0  0  0  0  0  0  0
   14.8880  -16.4356    0.0000 C   0  0  0  0  0  0  0  0  0  0  0  0
   13.5889  -15.6856    0.0000 C   0  0  0  0  0  0  0  0  0  0  0  0
   13.5889  -14.1856    0.0000 C   0  0  0  0  0  0  0  0  0  0  0  0
   12.2898  -16.4356    0.0000 C   0  0  0  0  0  0  0  0  0  0  0  0
   10.9909  -18.6856    0.0000 O   0  0  0  0  0  0  0  0  0  0  0  0
   21.3766  -20.1932    0.0000 C   0  0  0  0  0  0  0  0  0  0  0  0
   22.6734  -20.9469    0.0000 F   0  0  0  0  0  0  0  0  0  0  0  0
   20.0754  -20.9396    0.0000 F   0  0  0  0  0  0  0  0  0  0  0  0
   21.3616  -21.6931    0.0000 F   0  0  0  0  0  0  0  0  0  0  0  0
  1  2  1  0  0  0  0
  1  3  1  0  0  0  0
  1  4  2  0  0  0  0
  2  5  1  0  0  0  0
  5  6  1  0  0  0  0
  6  7  1  0  0  0  0
  6  8  2  0  0  0  0
  7  9  1  0  0  0  0
  9 10  2  0  0  0  0
 10 11  1  0  0  0  0
 11 12  2  0  0  0  0
 12 13  1  0  0  0  0
 13 14  2  0  0  0  0
 14  9  1  0  0  0  0
  2 15  1  6  0  0  0
 15 16  1  0  0  0  0
 16 17  1  0  0  0  0
 16 18  1  0  0  0  0
  3 19  1  0  0  0  0
 10 20  1  0  0  0  0
 20 21  1  0  0  0  0
 20 22  1  0  0  0  0
 20 23  1  0  0  0  0
M  END
> <Value>
6.102372908709558

> <Relation>
=

> <SourceURI>
mol:CHEMBL2332528

$$$$

Generated by Molecular Materials Informatics

 21 21  0  0  0  0  0  0  0  0999 V2000
    3.3179  -19.0425    0.0000 C   0  0  0  0  0  0  0  0  0  0  0  0
    4.6170  -18.2925    0.0000 C   0  0  0  0  0  0  0  0  0  0  0  0
    2.0189  -18.2925    0.0000 N   0  0  0  0  0  0  0  0  0  0  0  0
    3.3179  -20.5423    0.0000 O   0  0  0  0  0  0  0  0  0  0  0  0
    5.9162  -19.0425    0.0000 N   0  0  0  0  0  0  0  0  0  0  0  0
    7.2152  -18.2925    0.0000 C   0  0  0  0  0  0  0  0  0  0  0  0
    8.5142  -19.0425    0.0000 N   0  0  0  0  0  0  0  0  0  0  0  0
    7.2152  -16.7925    0.0000 O   0  0  0  0  0  0  0  0  0  0  0  0
    9.8133  -18.2925    0.0000 C   0  0  0  0  0  0  0  0  0  0  0  0
   11.1101  -19.0502    0.0000 C   0  0  0  0  0  0  0  0  0  0  0  0
   12.4082  -18.3015    0.0000 C   0  0  0  0  0  0  0  0  0  0  0  0
   12.4091  -16.7998    0.0000 C   0  0  0  0  0  0  0  0  0  0  0  0
   11.1009  -16.0502    0.0000 C   0  0  0  0  0  0  0  0  0  0  0  0
    9.8081  -16.8031    0.0000 C   0  0  0  0  0  0  0  0  0  0  0  0
    4.6170  -16.7925    0.0000 C   0  0  0  0  0  0  0  0  0  0  0  0
    3.3179  -16.0424    0.0000 C   0  0  0  0  0  0  0  0  0  0  0  0
    3.3179  -14.5424    0.0000 C   0  0  0  0  0  0  0  0  0  0  0  0
    2.0189  -16.7925    0.0000 C   0  0  0  0  0  0  0  0  0  0  0  0
    0.7199  -19.0425    0.0000 O   0  0  0  0  0  0  0  0  0  0  0  0
   11.1059  -20.5502    0.0000 O   0  0  0  0  0  0  0  0  0  0  0  0
    9.8046  -21.2966    0.0000 C   0  0  0  0  0  0  0  0  0  0  0  0
  1  2  1  0  0  0  0
  1  3  1  0  0  0  0
  1  4  2  0  0  0  0
  2  5  1  0  0  0  0
  5  6  1  0  0  0  0
  6  7  1  0  0  0  0
  6  8  2  0  0  0  0
  7  9  1  0  0  0  0
  9 10  2  0  0  0  0
 10 11  1  0  0  0  0
 11 12  2  0  0  0  0
 12 13  1  0  0  0  0
 13 14  2  0  0  0  0
 14  9  1  0  0  0  0
  2 15  1  6  0  0  0
 15 16  1  0  0  0  0
 16 17  1  0  0  0  0
 16 18  1  0  0  0  0
  3 19  1  0  0  0  0
 10 20  1  0  0  0  0
 20 21  1  0  0  0  0
M  END
> <Value>
6.886056647693163

> <Relation>
=

> <SourceURI>
mol:CHEMBL2332527

$$$$

Generated by Molecular Materials Informatics

 20 20  0  0  0  0  0  0  0  0999 V2000
   12.9964  -12.4188    0.0000 C   0  0  0  0  0  0  0  0  0  0  0  0
   14.2954  -11.6688    0.0000 C   0  0  0  0  0  0  0  0  0  0  0  0
   11.6973  -11.6688    0.0000 N   0  0  0  0  0  0  0  0  0  0  0  0
   12.9964  -13.9189    0.0000 O   0  0  0  0  0  0  0  0  0  0  0  0
   15.5944  -12.4188    0.0000 N   0  0  0  0  0  0  0  0  0  0  0  0
   16.8935  -11.6688    0.0000 C   0  0  0  0  0  0  0  0  0  0  0  0
   18.1925  -12.4188    0.0000 N   0  0  0  0  0  0  0  0  0  0  0  0
   16.8935  -10.1690    0.0000 O   0  0  0  0  0  0  0  0  0  0  0  0
   19.4915  -11.6688    0.0000 C   0  0  0  0  0  0  0  0  0  0  0  0
   20.7884  -12.4267    0.0000 C   0  0  0  0  0  0  0  0  0  0  0  0
   22.0867  -11.6778    0.0000 C   0  0  0  0  0  0  0  0  0  0  0  0
   22.0874  -10.1763    0.0000 C   0  0  0  0  0  0  0  0  0  0  0  0
   20.7792   -9.4265    0.0000 C   0  0  0  0  0  0  0  0  0  0  0  0
   19.4864  -10.1796    0.0000 C   0  0  0  0  0  0  0  0  0  0  0  0
   14.2954  -10.1690    0.0000 C   0  0  0  0  0  0  0  0  0  0  0  0
   12.9964   -9.4190    0.0000 C   0  0  0  0  0  0  0  0  0  0  0  0
   12.9964   -7.9189    0.0000 C   0  0  0  0  0  0  0  0  0  0  0  0
   11.6973  -10.1690    0.0000 C   0  0  0  0  0  0  0  0  0  0  0  0
   10.3983  -12.4188    0.0000 O   0  0  0  0  0  0  0  0  0  0  0  0
   20.7841  -13.9266    0.0000 C   0  0  0  0  0  0  0  0  0  0  0  0
  1  2  1  0  0  0  0
  1  3  1  0  0  0  0
  1  4  2  0  0  0  0
  2  5  1  0  0  0  0
  5  6  1  0  0  0  0
  6  7  1  0  0  0  0
  6  8  2  0  0  0  0
  7  9  1  0  0  0  0
  9 10  2  0  0  0  0
 10 11  1  0  0  0  0
 11 12  2  0  0  0  0
 12 13  1  0  0  0  0
 13 14  2  0  0  0  0
 14  9  1  0  0  0  0
  2 15  1  6  0  0  0
 15 16  1  0  0  0  0
 16 17  1  0  0  0  0
 16 18  1  0  0  0  0
  3 19  1  0  0  0  0
 10 20  1  0  0  0  0
M  END
> <Value>
6.7447274948966935

> <Relation>
=

> <SourceURI>
mol:CHEMBL2332526

$$$$

Generated by Molecular Materials Informatics

 20 20  0  0  0  0  0  0  0  0999 V2000
    2.8847  -12.7739    0.0000 C   0  0  0  0  0  0  0  0  0  0  0  0
    4.1837  -12.0239    0.0000 C   0  0  0  0  0  0  0  0  0  0  0  0
    1.5856  -12.0239    0.0000 N   0  0  0  0  0  0  0  0  0  0  0  0
    2.8847  -14.2739    0.0000 O   0  0  0  0  0  0  0  0  0  0  0  0
    5.4827  -12.7739    0.0000 N   0  0  0  0  0  0  0  0  0  0  0  0
    6.7818  -12.0239    0.0000 C   0  0  0  0  0  0  0  0  0  0  0  0
    8.0808  -12.7739    0.0000 N   0  0  0  0  0  0  0  0  0  0  0  0
    6.7818  -10.5238    0.0000 O   0  0  0  0  0  0  0  0  0  0  0  0
    9.3798  -12.0239    0.0000 C   0  0  0  0  0  0  0  0  0  0  0  0
   10.6767  -12.7816    0.0000 C   0  0  0  0  0  0  0  0  0  0  0  0
   11.9748  -12.0329    0.0000 C   0  0  0  0  0  0  0  0  0  0  0  0
   11.9757  -10.5312    0.0000 C   0  0  0  0  0  0  0  0  0  0  0  0
   10.6675   -9.7815    0.0000 C   0  0  0  0  0  0  0  0  0  0  0  0
    9.3747  -10.5347    0.0000 C   0  0  0  0  0  0  0  0  0  0  0  0
    4.1837  -10.5238    0.0000 C   0  0  0  0  0  0  0  0  0  0  0  0
    2.8847   -9.7738    0.0000 C   0  0  0  0  0  0  0  0  0  0  0  0
    2.8847   -8.2738    0.0000 C   0  0  0  0  0  0  0  0  0  0  0  0
    1.5856  -10.5238    0.0000 C   0  0  0  0  0  0  0  0  0  0  0  0
    0.2866  -12.7739    0.0000 O   0  0  0  0  0  0  0  0  0  0  0  0
   10.6724  -14.2816    0.0000 Br  0  0  0  0  0  0  0  0  0  0  0  0
  1  2  1  0  0  0  0
  1  3  1  0  0  0  0
  1  4  2  0  0  0  0
  2  5  1  0  0  0  0
  5  6  1  0  0  0  0
  6  7  1  0  0  0  0
  6  8  2  0  0  0  0
  7  9  1  0  0  0  0
  9 10  2  0  0  0  0
 10 11  1  0  0  0  0
 11 12  2  0  0  0  0
 12 13  1  0  0  0  0
 13 14  2  0  0  0  0
 14  9  1  0  0  0  0
  2 15  1  6  0  0  0
 15 16  1  0  0  0  0
 16 17  1  0  0  0  0
 16 18  1  0  0  0  0
  3 19  1  0  0  0  0
 10 20  1  0  0  0  0
M  END
> <Value>
7.221848749616356

> <Relation>
=

> <SourceURI>
mol:CHEMBL2332525

$$$$

Generated by Molecular Materials Informatics

 20 20  0  0  0  0  0  0  0  0999 V2000
   12.5960   -6.1373    0.0000 C   0  0  0  0  0  0  0  0  0  0  0  0
   13.8952   -5.3873    0.0000 C   0  0  0  0  0  0  0  0  0  0  0  0
   11.2969   -5.3873    0.0000 N   0  0  0  0  0  0  0  0  0  0  0  0
   12.5960   -7.6373    0.0000 O   0  0  0  0  0  0  0  0  0  0  0  0
   15.1942   -6.1373    0.0000 N   0  0  0  0  0  0  0  0  0  0  0  0
   16.4932   -5.3873    0.0000 C   0  0  0  0  0  0  0  0  0  0  0  0
   17.7922   -6.1373    0.0000 N   0  0  0  0  0  0  0  0  0  0  0  0
   16.4932   -3.8872    0.0000 O   0  0  0  0  0  0  0  0  0  0  0  0
   19.0912   -5.3873    0.0000 C   0  0  0  0  0  0  0  0  0  0  0  0
   20.3881   -6.1450    0.0000 C   0  0  0  0  0  0  0  0  0  0  0  0
   21.6862   -5.3962    0.0000 C   0  0  0  0  0  0  0  0  0  0  0  0
   21.6871   -3.8946    0.0000 C   0  0  0  0  0  0  0  0  0  0  0  0
   20.3789   -3.1449    0.0000 C   0  0  0  0  0  0  0  0  0  0  0  0
   19.0861   -3.8981    0.0000 C   0  0  0  0  0  0  0  0  0  0  0  0
   13.8952   -3.8872    0.0000 C   0  0  0  0  0  0  0  0  0  0  0  0
   12.5960   -3.1372    0.0000 C   0  0  0  0  0  0  0  0  0  0  0  0
   12.5960   -1.6372    0.0000 C   0  0  0  0  0  0  0  0  0  0  0  0
   11.2969   -3.8872    0.0000 C   0  0  0  0  0  0  0  0  0  0  0  0
    9.9979   -6.1373    0.0000 O   0  0  0  0  0  0  0  0  0  0  0  0
   20.3838   -7.6450    0.0000 Cl  0  0  0  0  0  0  0  0  0  0  0  0
  1  2  1  0  0  0  0
  1  3  1  0  0  0  0
  1  4  2  0  0  0  0
  2  5  1  0  0  0  0
  5  6  1  0  0  0  0
  6  7  1  0  0  0  0
  6  8  2  0  0  0  0
  7  9  1  0  0  0  0
  9 10  2  0  0  0  0
 10 11  1  0  0  0  0
 11 12  2  0  0  0  0
 12 13  1  0  0  0  0
 13 14  2  0  0  0  0
 14  9  1  0  0  0  0
  2 15  1  6  0  0  0
 15 16  1  0  0  0  0
 16 17  1  0  0  0  0
 16 18  1  0  0  0  0
  3 19  1  0  0  0  0
 10 20  1  0  0  0  0
M  END
> <Value>
7.031517051446065

> <Relation>
=

> <SourceURI>
mol:CHEMBL2332524

$$$$

Generated by Molecular Materials Informatics

 20 20  0  0  0  0  0  0  0  0999 V2000
    2.4842   -6.4921    0.0000 C   0  0  0  0  0  0  0  0  0  0  0  0
    3.7833   -5.7421    0.0000 C   0  0  0  0  0  0  0  0  0  0  0  0
    1.1852   -5.7421    0.0000 N   0  0  0  0  0  0  0  0  0  0  0  0
    2.4842   -7.9922    0.0000 O   0  0  0  0  0  0  0  0  0  0  0  0
    5.0825   -6.4921    0.0000 N   0  0  0  0  0  0  0  0  0  0  0  0
    6.3815   -5.7421    0.0000 C   0  0  0  0  0  0  0  0  0  0  0  0
    7.6805   -6.4921    0.0000 N   0  0  0  0  0  0  0  0  0  0  0  0
    6.3815   -4.2423    0.0000 O   0  0  0  0  0  0  0  0  0  0  0  0
    8.9796   -5.7421    0.0000 C   0  0  0  0  0  0  0  0  0  0  0  0
   10.2764   -6.5000    0.0000 C   0  0  0  0  0  0  0  0  0  0  0  0
   11.5745   -5.7511    0.0000 C   0  0  0  0  0  0  0  0  0  0  0  0
   11.5754   -4.2496    0.0000 C   0  0  0  0  0  0  0  0  0  0  0  0
   10.2672   -3.4998    0.0000 C   0  0  0  0  0  0  0  0  0  0  0  0
    8.9744   -4.2529    0.0000 C   0  0  0  0  0  0  0  0  0  0  0  0
    3.7833   -4.2423    0.0000 C   0  0  0  0  0  0  0  0  0  0  0  0
    2.4842   -3.4923    0.0000 C   0  0  0  0  0  0  0  0  0  0  0  0
    2.4842   -1.9922    0.0000 C   0  0  0  0  0  0  0  0  0  0  0  0
    1.1852   -4.2423    0.0000 C   0  0  0  0  0  0  0  0  0  0  0  0
   -0.1138   -6.4921    0.0000 O   0  0  0  0  0  0  0  0  0  0  0  0
   10.2722   -7.9999    0.0000 F   0  0  0  0  0  0  0  0  0  0  0  0
  1  2  1  0  0  0  0
  1  3  1  0  0  0  0
  1  4  2  0  0  0  0
  2  5  1  0  0  0  0
  5  6  1  0  0  0  0
  6  7  1  0  0  0  0
  6  8  2  0  0  0  0
  7  9  1  0  0  0  0
  9 10  2  0  0  0  0
 10 11  1  0  0  0  0
 11 12  2  0  0  0  0
 12 13  1  0  0  0  0
 13 14  2  0  0  0  0
 14  9  1  0  0  0  0
  2 15  1  6  0  0  0
 15 16  1  0  0  0  0
 16 17  1  0  0  0  0
 16 18  1  0  0  0  0
  3 19  1  0  0  0  0
 10 20  1  0  0  0  0
M  END
> <Value>
6.2839966563652006

> <Relation>
=

> <SourceURI>
mol:CHEMBL2332523

$$$$

Generated by Molecular Materials Informatics

 37 39  0  0  0  0  0  0  0  0999 V2000
    6.1203    1.0810    0.0000 C   0  0  0  0  0  0  0  0  0  0  0  0
    6.1181   -0.4231    0.0000 C   0  0  0  0  0  0  0  0  0  0  0  0
    7.4179   -1.1739    0.0000 C   0  0  0  0  0  0  0  0  0  0  0  0
    8.7204   -0.4224    0.0000 C   0  0  0  0  0  0  0  0  0  0  0  0
    8.7152    1.0878    0.0000 C   0  0  0  0  0  0  0  0  0  0  0  0
    7.4146    1.8316    0.0000 C   0  0  0  0  0  0  0  0  0  0  0  0
    4.8197    1.8303    0.0000 N   0  3  0  0  0  0  0  0  0  0  0  0
    3.5208    1.0799    0.0000 O   0  0  0  0  0  0  0  0  0  0  0  0
    4.8194    3.3303    0.0000 O   0  5  0  0  0  0  0  0  0  0  0  0
   10.0206   -1.1702    0.0000 C   0  0  0  0  0  0  0  0  0  0  0  0
   10.0230   -2.6702    0.0000 O   0  0  0  0  0  0  0  0  0  0  0  0
   11.3184   -0.4182    0.0000 C   0  0  0  0  0  0  0  0  0  0  0  0
   12.6188   -1.1662    0.0000 C   0  0  0  0  0  0  0  0  0  0  0  0
   11.3161    1.0818    0.0000 N   0  0  0  0  0  0  0  0  0  0  0  0
   13.9166   -0.4142    0.0000 N   0  0  0  0  0  0  0  0  0  0  0  0
   15.2168   -1.1621    0.0000 C   0  0  0  0  0  0  0  0  0  0  0  0
   15.2192   -2.6621    0.0000 O   0  0  0  0  0  0  0  0  0  0  0  0
   16.5146   -0.4101    0.0000 C   0  0  0  0  0  0  0  0  0  0  0  0
   17.8148   -1.1581    0.0000 N   0  0  0  0  0  0  0  0  0  0  0  0
   19.1128   -0.4061    0.0000 C   0  0  0  0  0  0  0  0  0  0  0  0
   20.4130   -1.1541    0.0000 C   0  0  0  0  0  0  0  0  0  0  0  0
   19.1104    1.0939    0.0000 O   0  0  0  0  0  0  0  0  0  0  0  0
   20.4153   -2.6541    0.0000 N   0  0  0  0  0  0  0  0  0  0  0  0
   21.7108   -0.4019    0.0000 C   0  0  0  0  0  0  0  0  0  0  0  0
   23.0110   -1.1499    0.0000 C   0  0  0  0  0  0  0  0  0  0  0  0
   16.5123    1.0899    0.0000 C   0  0  0  0  0  0  0  0  0  0  0  0
   15.2121    1.8379    0.0000 C   0  0  0  0  0  0  0  0  0  0  0  0
   15.2132    3.3390    0.0000 C   0  0  0  0  0  0  0  0  0  0  0  0
   13.9144    4.0868    0.0000 C   0  0  0  0  0  0  0  0  0  0  0  0
   12.6148    3.3347    0.0000 C   0  0  0  0  0  0  0  0  0  0  0  0
   12.6219    1.8270    0.0000 C   0  0  0  0  0  0  0  0  0  0  0  0
   13.9217    1.0859    0.0000 C   0  0  0  0  0  0  0  0  0  0  0  0
   23.0064   -2.6482    0.0000 C   0  0  0  0  0  0  0  0  0  0  0  0
   24.3052   -3.3960    0.0000 C   0  0  0  0  0  0  0  0  0  0  0  0
   25.6048   -2.6439    0.0000 C   0  0  0  0  0  0  0  0  0  0  0  0
   25.5977   -1.1361    0.0000 C   0  0  0  0  0  0  0  0  0  0  0  0
   24.2979   -0.3951    0.0000 C   0  0  0  0  0  0  0  0  0  0  0  0
  1  7  1  0  0  0  0
 18 19  1  0  0  0  0
  4  5  1  0  0  0  0
 19 20  1  0  0  0  0
  4 10  1  0  0  0  0
 20 21  1  0  0  0  0
  2  3  1  0  0  0  0
 20 22  2  0  0  0  0
 10 11  1  1  0  0  0
 21 23  1  1  0  0  0
  5  6  2  0  0  0  0
 21 24  1  0  0  0  0
 10 12  1  0  0  0  0
 24 25  1  0  0  0  0
  6  1  1  0  0  0  0
 18 26  1  1  0  0  0
 12 13  1  0  0  0  0
 26 27  1  0  0  0  0
  1  2  2  0  0  0  0
 27 28  2  0  0  0  0
 12 14  1  1  0  0  0
 28 29  1  0  0  0  0
  3  4  2  0  0  0  0
 29 30  2  0  0  0  0
 13 15  1  0  0  0  0
 30 31  1  0  0  0  0
 31 32  2  0  0  0  0
 32 27  1  0  0  0  0
 15 16  1  0  0  0  0
 25 33  2  0  0  0  0
  7  8  2  0  0  0  0
 33 34  1  0  0  0  0
 16 17  2  0  0  0  0
 34 35  2  0  0  0  0
  7  9  1  0  0  0  0
 35 36  1  0  0  0  0
 16 18  1  0  0  0  0
 36 37  2  0  0  0  0
 37 25  1  0  0  0  0
M  CHG  2   7   1   9  -1
M  END
> <Value>
3.874193541860473

> <Relation>
=

> <SourceURI>
mol:CHEMBL1819331

$$$$

Generated by Molecular Materials Informatics

 34 35  0  0  0  0  0  0  0  0999 V2000
   -6.3642   -5.5014    0.0000 C   0  0  0  0  0  0  0  0  0  0  0  0
   -6.3664   -7.0058    0.0000 C   0  0  0  0  0  0  0  0  0  0  0  0
   -5.0667   -7.7563    0.0000 C   0  0  0  0  0  0  0  0  0  0  0  0
   -3.7640   -7.0049    0.0000 C   0  0  0  0  0  0  0  0  0  0  0  0
   -3.7693   -5.4949    0.0000 C   0  0  0  0  0  0  0  0  0  0  0  0
   -5.0700   -4.7509    0.0000 C   0  0  0  0  0  0  0  0  0  0  0  0
   -7.6647   -4.7521    0.0000 N   0  3  0  0  0  0  0  0  0  0  0  0
   -8.9636   -5.5025    0.0000 O   0  0  0  0  0  0  0  0  0  0  0  0
   -7.6651   -3.2521    0.0000 O   0  5  0  0  0  0  0  0  0  0  0  0
   -2.4638   -7.7529    0.0000 C   0  0  0  0  0  0  0  0  0  0  0  0
   -2.4615   -9.2529    0.0000 O   0  0  0  0  0  0  0  0  0  0  0  0
   -1.1660   -7.0007    0.0000 C   0  0  0  0  0  0  0  0  0  0  0  0
    0.1342   -7.7487    0.0000 C   0  0  0  0  0  0  0  0  0  0  0  0
   -1.1684   -5.5007    0.0000 N   0  0  0  0  0  0  0  0  0  0  0  0
    1.4320   -6.9967    0.0000 N   0  0  0  0  0  0  0  0  0  0  0  0
    2.7323   -7.7447    0.0000 C   0  0  0  0  0  0  0  0  0  0  0  0
    4.0302   -6.9927    0.0000 C   0  0  0  0  0  0  0  0  0  0  0  0
    2.7347   -9.2447    0.0000 O   0  0  0  0  0  0  0  0  0  0  0  0
    4.0278   -5.4927    0.0000 N   0  0  0  0  0  0  0  0  0  0  0  0
    5.3256   -4.7405    0.0000 C   0  0  0  0  0  0  0  0  0  0  0  0
    5.3233   -3.2405    0.0000 C   0  0  0  0  0  0  0  0  0  0  0  0
    6.6211   -2.4885    0.0000 C   0  0  0  0  0  0  0  0  0  0  0  0
    4.0231   -2.4927    0.0000 N   0  0  0  0  0  0  0  0  0  0  0  0
    7.9214   -3.2365    0.0000 C   0  0  0  0  0  0  0  0  0  0  0  0
    7.9160   -4.7383    0.0000 C   0  0  0  0  0  0  0  0  0  0  0  0
    9.2147   -5.4861    0.0000 C   0  0  0  0  0  0  0  0  0  0  0  0
   10.5143   -4.7340    0.0000 C   0  0  0  0  0  0  0  0  0  0  0  0
   10.5071   -3.2261    0.0000 C   0  0  0  0  0  0  0  0  0  0  0  0
    9.2074   -2.4852    0.0000 C   0  0  0  0  0  0  0  0  0  0  0  0
    5.3303   -7.7405    0.0000 C   0  0  0  0  0  0  0  0  0  0  0  0
    6.6258   -5.4885    0.0000 O   0  0  0  0  0  0  0  0  0  0  0  0
    5.3327   -9.2405    0.0000 C   0  0  0  0  0  0  0  0  0  0  0  0
    6.6329   -9.9885    0.0000 C   0  0  0  0  0  0  0  0  0  0  0  0
    4.0349   -9.9927    0.0000 C   0  0  0  0  0  0  0  0  0  0  0  0
 16 17  1  0  0  0  0
  7  9  1  0  0  0  0
 16 18  2  0  0  0  0
  1  7  1  0  0  0  0
 17 19  1  0  0  0  0
  4  5  1  0  0  0  0
 19 20  1  0  0  0  0
  4 10  1  0  0  0  0
 20 21  1  0  0  0  0
 20 31  2  0  0  0  0
  2  3  1  0  0  0  0
 21 22  1  6  0  0  0
 10 11  1  1  0  0  0
 21 23  1  0  0  0  0
  5  6  2  0  0  0  0
 22 24  1  0  0  0  0
 10 12  1  0  0  0  0
 24 25  2  0  0  0  0
  6  1  1  0  0  0  0
 25 26  1  0  0  0  0
 12 13  1  0  0  0  0
 26 27  2  0  0  0  0
  1  2  2  0  0  0  0
 27 28  1  0  0  0  0
 12 14  1  1  0  0  0
 28 29  2  0  0  0  0
 29 24  1  0  0  0  0
  3  4  2  0  0  0  0
 17 30  1  1  0  0  0
 13 15  1  0  0  0  0
 30 32  1  0  0  0  0
 15 16  1  0  0  0  0
 32 33  1  0  0  0  0
  7  8  2  0  0  0  0
 32 34  1  0  0  0  0
M  CHG  2   7   1   9  -1
M  END
> <Value>
4.126679398184601

> <Relation>
=

> <SourceURI>
mol:CHEMBL1819332

$$$$

Generated by Molecular Materials Informatics

 32 33  0  0  0  0  0  0  0  0999 V2000
    7.1761   -4.8571    0.0000 C   0  0  0  0  0  0  0  0  0  0  0  0
    7.1740   -6.3613    0.0000 C   0  0  0  0  0  0  0  0  0  0  0  0
    8.4736   -7.1120    0.0000 C   0  0  0  0  0  0  0  0  0  0  0  0
    9.7763   -6.3605    0.0000 C   0  0  0  0  0  0  0  0  0  0  0  0
    9.7710   -4.8504    0.0000 C   0  0  0  0  0  0  0  0  0  0  0  0
    8.4703   -4.1065    0.0000 C   0  0  0  0  0  0  0  0  0  0  0  0
    5.8756   -4.1078    0.0000 N   0  3  0  0  0  0  0  0  0  0  0  0
    4.5767   -4.8582    0.0000 O   0  0  0  0  0  0  0  0  0  0  0  0
    5.8752   -2.6078    0.0000 O   0  5  0  0  0  0  0  0  0  0  0  0
   11.0765   -7.1084    0.0000 C   0  0  0  0  0  0  0  0  0  0  0  0
   11.0789   -8.6083    0.0000 O   0  0  0  0  0  0  0  0  0  0  0  0
   12.3743   -6.3564    0.0000 C   0  0  0  0  0  0  0  0  0  0  0  0
   13.6745   -7.1044    0.0000 C   0  0  0  0  0  0  0  0  0  0  0  0
   12.3720   -4.8564    0.0000 N   0  0  0  0  0  0  0  0  0  0  0  0
   14.9723   -6.3524    0.0000 N   0  0  0  0  0  0  0  0  0  0  0  0
   16.2727   -7.1002    0.0000 C   0  0  0  0  0  0  0  0  0  0  0  0
   16.2750   -8.6002    0.0000 O   0  0  0  0  0  0  0  0  0  0  0  0
   17.5705   -6.3482    0.0000 C   0  0  0  0  0  0  0  0  0  0  0  0
   18.8707   -7.0962    0.0000 C   0  0  0  0  0  0  0  0  0  0  0  0
   17.5681   -4.8482    0.0000 N   0  0  0  0  0  0  0  0  0  0  0  0
   18.8730   -8.5962    0.0000 C   0  0  0  0  0  0  0  0  0  0  0  0
   17.5721   -9.3383    0.0000 C   0  0  0  0  0  0  0  0  0  0  0  0
   17.5738  -10.8371    0.0000 C   0  0  0  0  0  0  0  0  0  0  0  0
   18.8750  -11.5865    0.0000 C   0  0  0  0  0  0  0  0  0  0  0  0
   20.1772  -10.8263    0.0000 C   0  0  0  0  0  0  0  0  0  0  0  0
   20.1690   -9.3302    0.0000 C   0  0  0  0  0  0  0  0  0  0  0  0
   18.8659   -4.0962    0.0000 C   0  0  0  0  0  0  0  0  0  0  0  0
   18.8636   -2.5962    0.0000 O   0  0  0  0  0  0  0  0  0  0  0  0
   20.1661   -4.8442    0.0000 C   0  0  0  0  0  0  0  0  0  0  0  0
   20.1685   -6.3442    0.0000 O   0  0  0  0  0  0  0  0  0  0  0  0
   21.4641   -4.0922    0.0000 C   0  0  0  0  0  0  0  0  0  0  0  0
   22.7643   -4.8400    0.0000 N   0  0  0  0  0  0  0  0  0  0  0  0
 15 16  1  0  0  0  0
  7  8  2  0  0  0  0
 16 17  2  0  0  0  0
  7  9  1  0  0  0  0
 16 18  1  0  0  0  0
  1  7  1  0  0  0  0
 18 19  1  6  0  0  0
  4  5  1  0  0  0  0
 18 20  1  0  0  0  0
  4 10  1  0  0  0  0
 19 21  1  0  0  0  0
  2  3  1  0  0  0  0
 21 22  2  0  0  0  0
 10 11  1  1  0  0  0
 22 23  1  0  0  0  0
  5  6  2  0  0  0  0
 23 24  2  0  0  0  0
 10 12  1  0  0  0  0
 24 25  1  0  0  0  0
  6  1  1  0  0  0  0
 25 26  2  0  0  0  0
 26 21  1  0  0  0  0
 12 13  1  0  0  0  0
 20 27  1  0  0  0  0
  1  2  2  0  0  0  0
 27 28  2  0  0  0  0
 12 14  1  1  0  0  0
 27 29  1  0  0  0  0
  3  4  2  0  0  0  0
 29 30  1  6  0  0  0
 13 15  1  0  0  0  0
 29 31  1  0  0  0  0
 31 32  1  0  0  0  0
M  CHG  2   7   1   9  -1
M  END
> <Value>
5.187086643357144

> <Relation>
=

> <SourceURI>
mol:CHEMBL1819333

$$$$

Generated by Molecular Materials Informatics

 21 21  0  0  0  0  0  0  0  0999 V2000
   -7.1916   -9.8331    0.0000 C   0  0  0  0  0  0  0  0  0  0  0  0
   -7.1938  -11.3375    0.0000 C   0  0  0  0  0  0  0  0  0  0  0  0
   -5.8940  -12.0880    0.0000 C   0  0  0  0  0  0  0  0  0  0  0  0
   -4.5914  -11.3366    0.0000 C   0  0  0  0  0  0  0  0  0  0  0  0
   -4.5967   -9.8266    0.0000 C   0  0  0  0  0  0  0  0  0  0  0  0
   -5.8973   -9.0826    0.0000 C   0  0  0  0  0  0  0  0  0  0  0  0
   -3.2913  -12.0845    0.0000 C   0  0  0  0  0  0  0  0  0  0  0  0
   -3.2889  -13.5845    0.0000 O   0  0  0  0  0  0  0  0  0  0  0  0
   -1.9934  -11.3324    0.0000 C   0  0  0  0  0  0  0  0  0  0  0  0
   -0.6931  -12.0804    0.0000 C   0  0  0  0  0  0  0  0  0  0  0  0
   -1.9958   -9.8324    0.0000 N   0  0  0  0  0  0  0  0  0  0  0  0
    0.6047  -11.3284    0.0000 N   0  0  0  0  0  0  0  0  0  0  0  0
    1.9049  -12.0764    0.0000 C   0  0  0  0  0  0  0  0  0  0  0  0
   -8.4909   -9.0835    0.0000 N   0  0  0  0  0  0  0  0  0  0  0  0
    1.9073  -13.5764    0.0000 O   0  0  0  0  0  0  0  0  0  0  0  0
    3.2027  -11.3244    0.0000 C   0  0  0  0  0  0  0  0  0  0  0  0
    4.5029  -12.0722    0.0000 C   0  0  0  0  0  0  0  0  0  0  0  0
    3.2004   -9.8244    0.0000 N   0  0  0  0  0  0  0  0  0  0  0  0
    5.8009  -11.3202    0.0000 C   0  0  0  0  0  0  0  0  0  0  0  0
    7.1011  -12.0682    0.0000 C   0  0  0  0  0  0  0  0  0  0  0  0
    5.7985   -9.8202    0.0000 C   0  0  0  0  0  0  0  0  0  0  0  0
  2  3  1  0  0  0  0
  9 11  1  1  0  0  0
  5  6  2  0  0  0  0
 10 12  1  0  0  0  0
  6  1  1  0  0  0  0
 12 13  1  0  0  0  0
  1  2  2  0  0  0  0
  1 14  1  0  0  0  0
  4  7  1  0  0  0  0
 13 15  2  0  0  0  0
  3  4  2  0  0  0  0
 13 16  1  0  0  0  0
  7  8  1  1  0  0  0
 16 17  1  1  0  0  0
 16 18  1  0  0  0  0
  7  9  1  0  0  0  0
 17 19  1  0  0  0  0
  4  5  1  0  0  0  0
 19 20  1  0  0  0  0
  9 10  1  0  0  0  0
 19 21  1  0  0  0  0
M  END
> <Value>
4.199282921717615

> <Relation>
=

> <SourceURI>
mol:CHEMBL1819334

$$$$

Generated by Molecular Materials Informatics

 22 22  0  0  0  0  0  0  0  0999 V2000
    3.8530  -10.3164    0.0000 C   0  0  0  0  0  0  0  0  0  0  0  0
    3.8508  -11.8207    0.0000 C   0  0  0  0  0  0  0  0  0  0  0  0
    5.1505  -12.5714    0.0000 C   0  0  0  0  0  0  0  0  0  0  0  0
    6.4532  -11.8198    0.0000 C   0  0  0  0  0  0  0  0  0  0  0  0
    6.4479  -10.3098    0.0000 C   0  0  0  0  0  0  0  0  0  0  0  0
    5.1472   -9.5660    0.0000 C   0  0  0  0  0  0  0  0  0  0  0  0
    7.7534  -12.5678    0.0000 C   0  0  0  0  0  0  0  0  0  0  0  0
    7.7558  -14.0678    0.0000 O   0  0  0  0  0  0  0  0  0  0  0  0
    9.0512  -11.8158    0.0000 C   0  0  0  0  0  0  0  0  0  0  0  0
   10.3514  -12.5638    0.0000 C   0  0  0  0  0  0  0  0  0  0  0  0
    9.0488  -10.3158    0.0000 N   0  0  0  0  0  0  0  0  0  0  0  0
   11.6492  -11.8116    0.0000 N   0  0  0  0  0  0  0  0  0  0  0  0
   12.9496  -12.5596    0.0000 C   0  0  0  0  0  0  0  0  0  0  0  0
    2.5538   -9.5667    0.0000 N   0  0  0  0  0  0  0  0  0  0  0  0
   12.9519  -14.0596    0.0000 O   0  0  0  0  0  0  0  0  0  0  0  0
   14.2474  -11.8076    0.0000 C   0  0  0  0  0  0  0  0  0  0  0  0
   15.5476  -12.5556    0.0000 C   0  0  0  0  0  0  0  0  0  0  0  0
   14.2450  -10.3076    0.0000 N   0  0  0  0  0  0  0  0  0  0  0  0
   16.8454  -11.8036    0.0000 C   0  0  0  0  0  0  0  0  0  0  0  0
   18.1456  -12.5514    0.0000 C   0  0  0  0  0  0  0  0  0  0  0  0
   19.4436  -11.7994    0.0000 C   0  0  0  0  0  0  0  0  0  0  0  0
   20.7437  -12.5474    0.0000 N   0  0  0  0  0  0  0  0  0  0  0  0
  9 11  1  1  0  0  0
  5  6  2  0  0  0  0
 10 12  1  0  0  0  0
  6  1  1  0  0  0  0
 12 13  1  0  0  0  0
  1  2  2  0  0  0  0
  1 14  1  0  0  0  0
  4  7  1  0  0  0  0
 13 15  2  0  0  0  0
  3  4  2  0  0  0  0
 13 16  1  0  0  0  0
  7  8  1  1  0  0  0
 16 17  1  1  0  0  0
 16 18  1  0  0  0  0
  7  9  1  0  0  0  0
 17 19  1  0  0  0  0
  4  5  1  0  0  0  0
 19 20  1  0  0  0  0
  9 10  1  0  0  0  0
 20 21  1  0  0  0  0
  2  3  1  0  0  0  0
 21 22  1  0  0  0  0
M  END
> <Value>
3.8677403104689554

> <Relation>
=

> <SourceURI>
mol:CHEMBL1819335

$$$$

Generated by Molecular Materials Informatics

 32 33  0  0  0  0  0  0  0  0999 V2000
   -7.7959  -19.7029    0.0000 C   0  0  0  0  0  0  0  0  0  0  0  0
   -7.7981  -21.2072    0.0000 C   0  0  0  0  0  0  0  0  0  0  0  0
   -6.4985  -21.9578    0.0000 C   0  0  0  0  0  0  0  0  0  0  0  0
   -5.1957  -21.2063    0.0000 C   0  0  0  0  0  0  0  0  0  0  0  0
   -5.2010  -19.6963    0.0000 C   0  0  0  0  0  0  0  0  0  0  0  0
   -6.5017  -18.9523    0.0000 C   0  0  0  0  0  0  0  0  0  0  0  0
   -3.8956  -21.9543    0.0000 C   0  0  0  0  0  0  0  0  0  0  0  0
   -3.8932  -23.4543    0.0000 O   0  0  0  0  0  0  0  0  0  0  0  0
   -2.5977  -21.2022    0.0000 C   0  0  0  0  0  0  0  0  0  0  0  0
   -1.2976  -21.9501    0.0000 C   0  0  0  0  0  0  0  0  0  0  0  0
   -2.6001  -19.7021    0.0000 N   0  0  0  0  0  0  0  0  0  0  0  0
    0.0003  -21.1982    0.0000 N   0  0  0  0  0  0  0  0  0  0  0  0
    1.3006  -21.9462    0.0000 C   0  0  0  0  0  0  0  0  0  0  0  0
   -9.0952  -18.9532    0.0000 N   0  0  0  0  0  0  0  0  0  0  0  0
    1.3030  -23.4461    0.0000 O   0  0  0  0  0  0  0  0  0  0  0  0
    2.5985  -21.1941    0.0000 C   0  0  0  0  0  0  0  0  0  0  0  0
    3.8986  -21.9420    0.0000 C   0  0  0  0  0  0  0  0  0  0  0  0
    2.5961  -19.6942    0.0000 N   0  0  0  0  0  0  0  0  0  0  0  0
    3.9010  -23.4420    0.0000 C   0  0  0  0  0  0  0  0  0  0  0  0
    3.8939  -18.9420    0.0000 C   0  0  0  0  0  0  0  0  0  0  0  0
    3.8915  -17.4420    0.0000 O   0  0  0  0  0  0  0  0  0  0  0  0
    5.1941  -19.6900    0.0000 C   0  0  0  0  0  0  0  0  0  0  0  0
    5.1965  -21.1900    0.0000 N   0  0  0  0  0  0  0  0  0  0  0  0
    6.4921  -18.9380    0.0000 C   0  0  0  0  0  0  0  0  0  0  0  0
    7.7923  -19.6860    0.0000 C   0  0  0  0  0  0  0  0  0  0  0  0
    9.0901  -18.9340    0.0000 C   0  0  0  0  0  0  0  0  0  0  0  0
    7.7946  -21.1860    0.0000 C   0  0  0  0  0  0  0  0  0  0  0  0
    2.6001  -24.1843    0.0000 C   0  0  0  0  0  0  0  0  0  0  0  0
    2.6017  -25.6829    0.0000 C   0  0  0  0  0  0  0  0  0  0  0  0
    3.9030  -26.4323    0.0000 C   0  0  0  0  0  0  0  0  0  0  0  0
    5.2052  -25.6722    0.0000 C   0  0  0  0  0  0  0  0  0  0  0  0
    5.1970  -24.1762    0.0000 C   0  0  0  0  0  0  0  0  0  0  0  0
 13 16  1  0  0  0  0
  7  8  1  1  0  0  0
 16 17  1  6  0  0  0
 16 18  1  0  0  0  0
  7  9  1  0  0  0  0
 17 19  1  0  0  0  0
  4  5  1  0  0  0  0
 18 20  1  0  0  0  0
  9 10  1  0  0  0  0
 20 21  2  0  0  0  0
  2  3  1  0  0  0  0
 20 22  1  0  0  0  0
  9 11  1  1  0  0  0
 22 23  1  0  0  0  0
  5  6  2  0  0  0  0
 22 24  1  6  0  0  0
 10 12  1  0  0  0  0
 24 25  1  0  0  0  0
  6  1  1  0  0  0  0
 25 26  1  0  0  0  0
 12 13  1  0  0  0  0
 25 27  1  0  0  0  0
  1  2  2  0  0  0  0
 19 28  2  0  0  0  0
  1 14  1  0  0  0  0
 28 29  1  0  0  0  0
  4  7  1  0  0  0  0
 29 30  2  0  0  0  0
 13 15  2  0  0  0  0
 30 31  1  0  0  0  0
  3  4  2  0  0  0  0
 31 32  2  0  0  0  0
 32 19  1  0  0  0  0
M  END
> <Value>
5.214670164989233

> <Relation>
=

> <SourceURI>
mol:CHEMBL1819443

$$$$

Generated by Molecular Materials Informatics

 35 37  0  0  0  0  0  0  0  0999 V2000
    4.0126  -19.7611    0.0000 C   0  0  0  0  0  0  0  0  0  0  0  0
    4.0104  -21.2655    0.0000 C   0  0  0  0  0  0  0  0  0  0  0  0
    5.3101  -22.0162    0.0000 C   0  0  0  0  0  0  0  0  0  0  0  0
    6.6128  -21.2646    0.0000 C   0  0  0  0  0  0  0  0  0  0  0  0
    6.6075  -19.7546    0.0000 C   0  0  0  0  0  0  0  0  0  0  0  0
    5.3068  -19.0108    0.0000 C   0  0  0  0  0  0  0  0  0  0  0  0
    7.9130  -22.0126    0.0000 C   0  0  0  0  0  0  0  0  0  0  0  0
    7.9153  -23.5126    0.0000 O   0  0  0  0  0  0  0  0  0  0  0  0
    9.2108  -21.2606    0.0000 C   0  0  0  0  0  0  0  0  0  0  0  0
   10.5110  -22.0086    0.0000 C   0  0  0  0  0  0  0  0  0  0  0  0
    9.2084  -19.7606    0.0000 N   0  0  0  0  0  0  0  0  0  0  0  0
   11.8088  -21.2564    0.0000 N   0  0  0  0  0  0  0  0  0  0  0  0
   13.1092  -22.0044    0.0000 C   0  0  0  0  0  0  0  0  0  0  0  0
    2.7133  -19.0115    0.0000 N   0  0  0  0  0  0  0  0  0  0  0  0
   13.1115  -23.5044    0.0000 O   0  0  0  0  0  0  0  0  0  0  0  0
   14.4070  -21.2524    0.0000 C   0  0  0  0  0  0  0  0  0  0  0  0
   15.7072  -22.0004    0.0000 C   0  0  0  0  0  0  0  0  0  0  0  0
   14.4046  -19.7524    0.0000 N   0  0  0  0  0  0  0  0  0  0  0  0
   15.7095  -23.5004    0.0000 C   0  0  0  0  0  0  0  0  0  0  0  0
   15.7024  -19.0004    0.0000 C   0  0  0  0  0  0  0  0  0  0  0  0
   15.7001  -17.5004    0.0000 O   0  0  0  0  0  0  0  0  0  0  0  0
   17.0026  -19.7484    0.0000 C   0  0  0  0  0  0  0  0  0  0  0  0
   17.0050  -21.2484    0.0000 N   0  0  0  0  0  0  0  0  0  0  0  0
   18.3006  -18.9962    0.0000 C   0  0  0  0  0  0  0  0  0  0  0  0
   19.6008  -19.7442    0.0000 C   0  0  0  0  0  0  0  0  0  0  0  0
   14.4086  -24.2426    0.0000 C   0  0  0  0  0  0  0  0  0  0  0  0
   14.4102  -25.7411    0.0000 C   0  0  0  0  0  0  0  0  0  0  0  0
   15.7115  -26.4906    0.0000 C   0  0  0  0  0  0  0  0  0  0  0  0
   17.0137  -25.7306    0.0000 C   0  0  0  0  0  0  0  0  0  0  0  0
   17.0055  -24.2344    0.0000 C   0  0  0  0  0  0  0  0  0  0  0  0
   19.5957  -21.2406    0.0000 C   0  0  0  0  0  0  0  0  0  0  0  0
   20.8944  -21.9884    0.0000 C   0  0  0  0  0  0  0  0  0  0  0  0
   22.1941  -21.2362    0.0000 C   0  0  0  0  0  0  0  0  0  0  0  0
   22.1870  -19.7284    0.0000 C   0  0  0  0  0  0  0  0  0  0  0  0
   20.8872  -18.9873    0.0000 C   0  0  0  0  0  0  0  0  0  0  0  0
 16 18  1  0  0  0  0
  7  9  1  0  0  0  0
 17 19  1  0  0  0  0
  4  5  1  0  0  0  0
 18 20  1  0  0  0  0
  9 10  1  0  0  0  0
 20 21  2  0  0  0  0
  2  3  1  0  0  0  0
 20 22  1  0  0  0  0
  9 11  1  1  0  0  0
 22 23  1  0  0  0  0
  5  6  2  0  0  0  0
 22 24  1  1  0  0  0
 10 12  1  0  0  0  0
 24 25  1  0  0  0  0
  6  1  1  0  0  0  0
 19 26  2  0  0  0  0
 12 13  1  0  0  0  0
 26 27  1  0  0  0  0
  1  2  2  0  0  0  0
 27 28  2  0  0  0  0
  1 14  1  0  0  0  0
 28 29  1  0  0  0  0
  4  7  1  0  0  0  0
 29 30  2  0  0  0  0
 30 19  1  0  0  0  0
 13 15  2  0  0  0  0
 25 31  2  0  0  0  0
  3  4  2  0  0  0  0
 31 32  1  0  0  0  0
 13 16  1  0  0  0  0
 32 33  2  0  0  0  0
  7  8  1  1  0  0  0
 33 34  1  0  0  0  0
 16 17  1  6  0  0  0
 34 35  2  0  0  0  0
 35 25  1  0  0  0  0
M  END
> <Value>
4.51427857351842

> <Relation>
=

> <SourceURI>
mol:CHEMBL1819444

$$$$

Generated by Molecular Materials Informatics

 32 33  0  0  0  0  0  0  0  0999 V2000
   -8.0374    1.4228    0.0000 C   0  0  0  0  0  0  0  0  0  0  0  0
   -8.0396   -0.0816    0.0000 C   0  0  0  0  0  0  0  0  0  0  0  0
   -6.7399   -0.8323    0.0000 C   0  0  0  0  0  0  0  0  0  0  0  0
   -5.4372   -0.0807    0.0000 C   0  0  0  0  0  0  0  0  0  0  0  0
   -5.4425    1.4293    0.0000 C   0  0  0  0  0  0  0  0  0  0  0  0
   -6.7432    2.1731    0.0000 C   0  0  0  0  0  0  0  0  0  0  0  0
   -4.1370   -0.8287    0.0000 C   0  0  0  0  0  0  0  0  0  0  0  0
   -4.1347   -2.3287    0.0000 O   0  0  0  0  0  0  0  0  0  0  0  0
   -2.8392   -0.0767    0.0000 C   0  0  0  0  0  0  0  0  0  0  0  0
   -1.5390   -0.8247    0.0000 C   0  0  0  0  0  0  0  0  0  0  0  0
   -2.8416    1.4233    0.0000 N   0  0  0  0  0  0  0  0  0  0  0  0
   -0.2412   -0.0725    0.0000 N   0  0  0  0  0  0  0  0  0  0  0  0
    1.0592   -0.8205    0.0000 C   0  0  0  0  0  0  0  0  0  0  0  0
   -9.3367    2.1724    0.0000 N   0  0  0  0  0  0  0  0  0  0  0  0
    1.0615   -2.3205    0.0000 O   0  0  0  0  0  0  0  0  0  0  0  0
    2.3570   -0.0685    0.0000 C   0  0  0  0  0  0  0  0  0  0  0  0
    3.6572   -0.8165    0.0000 C   0  0  0  0  0  0  0  0  0  0  0  0
    2.3546    1.4315    0.0000 N   0  0  0  0  0  0  0  0  0  0  0  0
    3.6595   -2.3165    0.0000 C   0  0  0  0  0  0  0  0  0  0  0  0
    4.9597   -3.0645    0.0000 C   0  0  0  0  0  0  0  0  0  0  0  0
    2.3617   -3.0685    0.0000 C   0  0  0  0  0  0  0  0  0  0  0  0
    3.6524    2.1835    0.0000 C   0  0  0  0  0  0  0  0  0  0  0  0
    3.6501    3.6835    0.0000 O   0  0  0  0  0  0  0  0  0  0  0  0
    4.9526    1.4355    0.0000 C   0  0  0  0  0  0  0  0  0  0  0  0
    4.9550   -0.0645    0.0000 N   0  0  0  0  0  0  0  0  0  0  0  0
    6.2506    2.1877    0.0000 C   0  0  0  0  0  0  0  0  0  0  0  0
    7.5508    1.4397    0.0000 C   0  0  0  0  0  0  0  0  0  0  0  0
    7.5457   -0.0567    0.0000 C   0  0  0  0  0  0  0  0  0  0  0  0
    8.8444   -0.8045    0.0000 C   0  0  0  0  0  0  0  0  0  0  0  0
   10.1441   -0.0523    0.0000 C   0  0  0  0  0  0  0  0  0  0  0  0
   10.1370    1.4555    0.0000 C   0  0  0  0  0  0  0  0  0  0  0  0
    8.8371    2.1966    0.0000 C   0  0  0  0  0  0  0  0  0  0  0  0
 13 16  1  0  0  0  0
  7  8  1  1  0  0  0
 16 17  1  1  0  0  0
 16 18  1  0  0  0  0
  7  9  1  0  0  0  0
 17 19  1  0  0  0  0
  4  5  1  0  0  0  0
 19 20  1  0  0  0  0
  9 10  1  0  0  0  0
 19 21  1  0  0  0  0
  2  3  1  0  0  0  0
 18 22  1  0  0  0  0
  9 11  1  1  0  0  0
 22 23  2  0  0  0  0
  5  6  2  0  0  0  0
 22 24  1  0  0  0  0
 10 12  1  0  0  0  0
 24 25  1  0  0  0  0
  6  1  1  0  0  0  0
 24 26  1  1  0  0  0
 12 13  1  0  0  0  0
 26 27  1  0  0  0  0
  1  2  2  0  0  0  0
 27 28  2  0  0  0  0
  1 14  1  0  0  0  0
 28 29  1  0  0  0  0
  4  7  1  0  0  0  0
 29 30  2  0  0  0  0
 13 15  2  0  0  0  0
 30 31  1  0  0  0  0
  3  4  2  0  0  0  0
 31 32  2  0  0  0  0
 32 27  1  0  0  0  0
M  END
> <Value>
4.5003129173815966

> <Relation>
=

> <SourceURI>
mol:CHEMBL1819445

$$$$

Generated by Molecular Materials Informatics

 21 21  0  0  0  0  0  0  0  0999 V2000
    5.7626    1.4377    0.0000 C   0  0  0  0  0  0  0  0  0  0  0  0
    5.7604   -0.0665    0.0000 C   0  0  0  0  0  0  0  0  0  0  0  0
    7.0601   -0.8172    0.0000 C   0  0  0  0  0  0  0  0  0  0  0  0
    8.3628   -0.0658    0.0000 C   0  0  0  0  0  0  0  0  0  0  0  0
    8.3575    1.4444    0.0000 C   0  0  0  0  0  0  0  0  0  0  0  0
    7.0568    2.1882    0.0000 C   0  0  0  0  0  0  0  0  0  0  0  0
    9.6630   -0.8136    0.0000 C   0  0  0  0  0  0  0  0  0  0  0  0
    9.6653   -2.3136    0.0000 O   0  0  0  0  0  0  0  0  0  0  0  0
   10.9608   -0.0616    0.0000 C   0  0  0  0  0  0  0  0  0  0  0  0
   12.2610   -0.8096    0.0000 C   0  0  0  0  0  0  0  0  0  0  0  0
   10.9584    1.4384    0.0000 N   0  0  0  0  0  0  0  0  0  0  0  0
   13.5588   -0.0576    0.0000 N   0  0  0  0  0  0  0  0  0  0  0  0
   14.8592   -0.8054    0.0000 C   0  0  0  0  0  0  0  0  0  0  0  0
    4.4633    2.1875    0.0000 I   0  0  0  0  0  0  0  0  0  0  0  0
   14.8615   -2.3054    0.0000 O   0  0  0  0  0  0  0  0  0  0  0  0
   16.1570   -0.0534    0.0000 C   0  0  0  0  0  0  0  0  0  0  0  0
   17.4572   -0.8014    0.0000 C   0  0  0  0  0  0  0  0  0  0  0  0
   18.7550   -0.0494    0.0000 C   0  0  0  0  0  0  0  0  0  0  0  0
   20.0552   -0.7974    0.0000 C   0  0  0  0  0  0  0  0  0  0  0  0
   18.7526    1.4506    0.0000 C   0  0  0  0  0  0  0  0  0  0  0  0
   16.1546    1.4466    0.0000 N   0  0  0  0  0  0  0  0  0  0  0  0
  2  3  1  0  0  0  0
  9 11  1  1  0  0  0
  5  6  2  0  0  0  0
 10 12  1  0  0  0  0
  6  1  1  0  0  0  0
 12 13  1  0  0  0  0
  1  2  2  0  0  0  0
  1 14  1  0  0  0  0
  4  7  1  0  0  0  0
 13 15  2  0  0  0  0
  3  4  2  0  0  0  0
 13 16  1  0  0  0  0
  7  8  1  1  0  0  0
 16 17  1  1  0  0  0
 17 18  1  0  0  0  0
  7  9  1  0  0  0  0
 18 19  1  0  0  0  0
  4  5  1  0  0  0  0
 18 20  1  0  0  0  0
  9 10  1  0  0  0  0
 16 21  1  0  0  0  0
M  END
> <Value>
4.51427857351842

> <Relation>
=

> <SourceURI>
mol:CHEMBL1819446

$$$$

Generated by Molecular Materials Informatics

 25 26  0  0  0  0  0  0  0  0999 V2000
   -7.4870   -3.8123    0.0000 C   0  0  0  0  0  0  0  0  0  0  0  0
   -7.4892   -5.3166    0.0000 C   0  0  0  0  0  0  0  0  0  0  0  0
   -6.1894   -6.0672    0.0000 C   0  0  0  0  0  0  0  0  0  0  0  0
   -4.8869   -5.3157    0.0000 C   0  0  0  0  0  0  0  0  0  0  0  0
   -4.8921   -3.8057    0.0000 C   0  0  0  0  0  0  0  0  0  0  0  0
   -6.1927   -3.0617    0.0000 C   0  0  0  0  0  0  0  0  0  0  0  0
   -3.5867   -6.0637    0.0000 C   0  0  0  0  0  0  0  0  0  0  0  0
   -3.5843   -7.5637    0.0000 O   0  0  0  0  0  0  0  0  0  0  0  0
   -2.2889   -5.3115    0.0000 C   0  0  0  0  0  0  0  0  0  0  0  0
   -0.9885   -6.0595    0.0000 C   0  0  0  0  0  0  0  0  0  0  0  0
   -2.2912   -3.8115    0.0000 N   0  0  0  0  0  0  0  0  0  0  0  0
    0.3093   -5.3075    0.0000 N   0  0  0  0  0  0  0  0  0  0  0  0
    1.6095   -6.0555    0.0000 C   0  0  0  0  0  0  0  0  0  0  0  0
   -8.7863   -3.0626    0.0000 I   0  0  0  0  0  0  0  0  0  0  0  0
    1.6119   -7.5555    0.0000 O   0  0  0  0  0  0  0  0  0  0  0  0
    2.9073   -5.3035    0.0000 C   0  0  0  0  0  0  0  0  0  0  0  0
    4.2075   -6.0514    0.0000 C   0  0  0  0  0  0  0  0  0  0  0  0
    2.9050   -3.8035    0.0000 N   0  0  0  0  0  0  0  0  0  0  0  0
    5.5055   -5.2994    0.0000 C   0  0  0  0  0  0  0  0  0  0  0  0
    6.8042   -6.0494    0.0000 C   0  0  0  0  0  0  0  0  0  0  0  0
    8.1011   -5.2986    0.0000 C   0  0  0  0  0  0  0  0  0  0  0  0
    8.0997   -3.7970    0.0000 C   0  0  0  0  0  0  0  0  0  0  0  0
    6.7902   -3.0494    0.0000 C   0  0  0  0  0  0  0  0  0  0  0  0
    5.4986   -3.8045    0.0000 C   0  0  0  0  0  0  0  0  0  0  0  0
    9.3964   -3.0432    0.0000 O   0  0  0  0  0  0  0  0  0  0  0  0
  6  1  1  0  0  0  0
 12 13  1  0  0  0  0
  1  2  2  0  0  0  0
  1 14  1  0  0  0  0
  4  7  1  0  0  0  0
 13 15  2  0  0  0  0
  3  4  2  0  0  0  0
 13 16  1  0  0  0  0
  7  8  1  1  0  0  0
 16 17  1  1  0  0  0
 16 18  1  0  0  0  0
  7  9  1  0  0  0  0
 17 19  1  0  0  0  0
  4  5  1  0  0  0  0
 19 20  2  0  0  0  0
  9 10  1  0  0  0  0
 20 21  1  0  0  0  0
  2  3  1  0  0  0  0
 21 22  2  0  0  0  0
  9 11  1  1  0  0  0
 22 23  1  0  0  0  0
  5  6  2  0  0  0  0
 23 24  2  0  0  0  0
 24 19  1  0  0  0  0
 10 12  1  0  0  0  0
 22 25  1  0  0  0  0
M  END
> <Value>
4.665546248849069

> <Relation>
=

> <SourceURI>
mol:CHEMBL1819447

$$$$

Generated by Molecular Materials Informatics

 32 33  0  0  0  0  0  0  0  0999 V2000
    4.8041   -3.1361    0.0000 C   0  0  0  0  0  0  0  0  0  0  0  0
    4.8019   -4.6405    0.0000 C   0  0  0  0  0  0  0  0  0  0  0  0
    6.1015   -5.3912    0.0000 C   0  0  0  0  0  0  0  0  0  0  0  0
    7.4043   -4.6396    0.0000 C   0  0  0  0  0  0  0  0  0  0  0  0
    7.3990   -3.1296    0.0000 C   0  0  0  0  0  0  0  0  0  0  0  0
    6.0983   -2.3858    0.0000 C   0  0  0  0  0  0  0  0  0  0  0  0
    8.7045   -5.3876    0.0000 C   0  0  0  0  0  0  0  0  0  0  0  0
    8.7068   -6.8876    0.0000 O   0  0  0  0  0  0  0  0  0  0  0  0
   10.0023   -4.6356    0.0000 C   0  0  0  0  0  0  0  0  0  0  0  0
   11.3025   -5.3836    0.0000 C   0  0  0  0  0  0  0  0  0  0  0  0
    9.9999   -3.1356    0.0000 N   0  0  0  0  0  0  0  0  0  0  0  0
   12.6003   -4.6314    0.0000 N   0  0  0  0  0  0  0  0  0  0  0  0
   13.9006   -5.3794    0.0000 C   0  0  0  0  0  0  0  0  0  0  0  0
    3.5048   -2.3865    0.0000 I   0  0  0  0  0  0  0  0  0  0  0  0
   13.9030   -6.8794    0.0000 O   0  0  0  0  0  0  0  0  0  0  0  0
   15.1984   -4.6274    0.0000 C   0  0  0  0  0  0  0  0  0  0  0  0
   16.4986   -5.3754    0.0000 C   0  0  0  0  0  0  0  0  0  0  0  0
   15.1961   -3.1274    0.0000 N   0  0  0  0  0  0  0  0  0  0  0  0
   16.4939   -2.3754    0.0000 C   0  0  0  0  0  0  0  0  0  0  0  0
   16.5010   -6.8754    0.0000 C   0  0  0  0  0  0  0  0  0  0  0  0
   16.4915   -0.8754    0.0000 O   0  0  0  0  0  0  0  0  0  0  0  0
   17.7941   -3.1234    0.0000 C   0  0  0  0  0  0  0  0  0  0  0  0
   17.7964   -4.6234    0.0000 N   0  0  0  0  0  0  0  0  0  0  0  0
   19.0921   -2.3712    0.0000 C   0  0  0  0  0  0  0  0  0  0  0  0
   20.3923   -3.1192    0.0000 C   0  0  0  0  0  0  0  0  0  0  0  0
   21.6901   -2.3672    0.0000 C   0  0  0  0  0  0  0  0  0  0  0  0
   20.3946   -4.6192    0.0000 C   0  0  0  0  0  0  0  0  0  0  0  0
   15.2001   -7.6176    0.0000 C   0  0  0  0  0  0  0  0  0  0  0  0
   15.2017   -9.1161    0.0000 C   0  0  0  0  0  0  0  0  0  0  0  0
   16.5030   -9.8656    0.0000 C   0  0  0  0  0  0  0  0  0  0  0  0
   17.8052   -9.1056    0.0000 C   0  0  0  0  0  0  0  0  0  0  0  0
   17.7970   -7.6094    0.0000 C   0  0  0  0  0  0  0  0  0  0  0  0
 13 16  1  0  0  0  0
  7  8  1  1  0  0  0
 16 17  1  6  0  0  0
 16 18  1  0  0  0  0
  7  9  1  0  0  0  0
 18 19  1  0  0  0  0
  4  5  1  0  0  0  0
 17 20  1  0  0  0  0
  9 10  1  0  0  0  0
 19 21  2  0  0  0  0
  2  3  1  0  0  0  0
 19 22  1  0  0  0  0
  9 11  1  1  0  0  0
 22 23  1  0  0  0  0
  5  6  2  0  0  0  0
 22 24  1  6  0  0  0
 10 12  1  0  0  0  0
 24 25  1  0  0  0  0
  6  1  1  0  0  0  0
 25 26  1  0  0  0  0
 12 13  1  0  0  0  0
 25 27  1  0  0  0  0
  1  2  2  0  0  0  0
 20 28  2  0  0  0  0
  1 14  1  0  0  0  0
 28 29  1  0  0  0  0
  4  7  1  0  0  0  0
 29 30  2  0  0  0  0
 13 15  2  0  0  0  0
 30 31  1  0  0  0  0
  3  4  2  0  0  0  0
 31 32  2  0  0  0  0
 32 20  1  0  0  0  0
M  END
> <Value>
4.94692155651658

> <Relation>
=

> <SourceURI>
mol:CHEMBL1819448

$$$$

Generated by Molecular Materials Informatics

 35 37  0  0  0  0  0  0  0  0999 V2000
   -8.0667   -9.2571    0.0000 C   0  0  0  0  0  0  0  0  0  0  0  0
   -8.0689  -10.7613    0.0000 C   0  0  0  0  0  0  0  0  0  0  0  0
   -6.7690  -11.5120    0.0000 C   0  0  0  0  0  0  0  0  0  0  0  0
   -5.4665  -10.7605    0.0000 C   0  0  0  0  0  0  0  0  0  0  0  0
   -5.4718   -9.2503    0.0000 C   0  0  0  0  0  0  0  0  0  0  0  0
   -6.7723   -8.5065    0.0000 C   0  0  0  0  0  0  0  0  0  0  0  0
   -4.1663  -11.5084    0.0000 C   0  0  0  0  0  0  0  0  0  0  0  0
   -4.1639  -13.0084    0.0000 O   0  0  0  0  0  0  0  0  0  0  0  0
   -2.8685  -10.7563    0.0000 C   0  0  0  0  0  0  0  0  0  0  0  0
   -1.5681  -11.5043    0.0000 C   0  0  0  0  0  0  0  0  0  0  0  0
   -2.8708   -9.2563    0.0000 N   0  0  0  0  0  0  0  0  0  0  0  0
   -0.2703  -10.7523    0.0000 N   0  0  0  0  0  0  0  0  0  0  0  0
    1.0299  -11.5002    0.0000 C   0  0  0  0  0  0  0  0  0  0  0  0
   -9.3660   -8.5072    0.0000 I   0  0  0  0  0  0  0  0  0  0  0  0
    1.0323  -13.0002    0.0000 O   0  0  0  0  0  0  0  0  0  0  0  0
    2.3277  -10.7482    0.0000 C   0  0  0  0  0  0  0  0  0  0  0  0
    3.6279  -11.4962    0.0000 C   0  0  0  0  0  0  0  0  0  0  0  0
    2.3254   -9.2482    0.0000 N   0  0  0  0  0  0  0  0  0  0  0  0
    3.6303  -12.9962    0.0000 C   0  0  0  0  0  0  0  0  0  0  0  0
    3.6234   -8.4962    0.0000 C   0  0  0  0  0  0  0  0  0  0  0  0
    3.6210   -6.9961    0.0000 O   0  0  0  0  0  0  0  0  0  0  0  0
    4.9236   -9.2442    0.0000 C   0  0  0  0  0  0  0  0  0  0  0  0
    4.9259  -10.7442    0.0000 N   0  0  0  0  0  0  0  0  0  0  0  0
    6.2214   -8.4922    0.0000 C   0  0  0  0  0  0  0  0  0  0  0  0
    7.5216   -9.2400    0.0000 C   0  0  0  0  0  0  0  0  0  0  0  0
    2.3294  -13.7384    0.0000 C   0  0  0  0  0  0  0  0  0  0  0  0
    2.3312  -15.2371    0.0000 C   0  0  0  0  0  0  0  0  0  0  0  0
    3.6323  -15.9866    0.0000 C   0  0  0  0  0  0  0  0  0  0  0  0
    4.9345  -15.2264    0.0000 C   0  0  0  0  0  0  0  0  0  0  0  0
    4.9265  -13.7302    0.0000 C   0  0  0  0  0  0  0  0  0  0  0  0
    7.5167  -10.7363    0.0000 C   0  0  0  0  0  0  0  0  0  0  0  0
    8.8154  -11.4842    0.0000 C   0  0  0  0  0  0  0  0  0  0  0  0
   10.1151  -10.7320    0.0000 C   0  0  0  0  0  0  0  0  0  0  0  0
   10.1078   -9.2242    0.0000 C   0  0  0  0  0  0  0  0  0  0  0  0
    8.8081   -8.4832    0.0000 C   0  0  0  0  0  0  0  0  0  0  0  0
 16 18  1  0  0  0  0
  7  9  1  0  0  0  0
 17 19  1  0  0  0  0
  4  5  1  0  0  0  0
 18 20  1  0  0  0  0
  9 10  1  0  0  0  0
 20 21  2  0  0  0  0
  2  3  1  0  0  0  0
 20 22  1  0  0  0  0
  9 11  1  1  0  0  0
 22 23  1  0  0  0  0
  5  6  2  0  0  0  0
 22 24  1  1  0  0  0
 10 12  1  0  0  0  0
 24 25  1  0  0  0  0
  6  1  1  0  0  0  0
 19 26  2  0  0  0  0
 12 13  1  0  0  0  0
 26 27  1  0  0  0  0
  1  2  2  0  0  0  0
 27 28  2  0  0  0  0
  1 14  1  0  0  0  0
 28 29  1  0  0  0  0
  4  7  1  0  0  0  0
 29 30  2  0  0  0  0
 30 19  1  0  0  0  0
 13 15  2  0  0  0  0
 25 31  2  0  0  0  0
  3  4  2  0  0  0  0
 31 32  1  0  0  0  0
 13 16  1  0  0  0  0
 32 33  2  0  0  0  0
  7  8  1  1  0  0  0
 33 34  1  0  0  0  0
 16 17  1  6  0  0  0
 34 35  2  0  0  0  0
 35 25  1  0  0  0  0
M  END
> <Value>
3.0

> <Relation>
<

> <SourceURI>
mol:CHEMBL1819449

$$$$

Generated by Molecular Materials Informatics

 32 33  0  0  0  0  0  0  0  0999 V2000
    5.2584  -10.3815    0.0000 C   0  0  0  0  0  0  0  0  0  0  0  0
    5.2562  -11.8858    0.0000 C   0  0  0  0  0  0  0  0  0  0  0  0
    6.5560  -12.6364    0.0000 C   0  0  0  0  0  0  0  0  0  0  0  0
    7.8586  -11.8849    0.0000 C   0  0  0  0  0  0  0  0  0  0  0  0
    7.8533  -10.3749    0.0000 C   0  0  0  0  0  0  0  0  0  0  0  0
    6.5527   -9.6309    0.0000 C   0  0  0  0  0  0  0  0  0  0  0  0
    9.1587  -12.6329    0.0000 C   0  0  0  0  0  0  0  0  0  0  0  0
    9.1611  -14.1329    0.0000 O   0  0  0  0  0  0  0  0  0  0  0  0
   10.4566  -11.8807    0.0000 C   0  0  0  0  0  0  0  0  0  0  0  0
   11.7569  -12.6287    0.0000 C   0  0  0  0  0  0  0  0  0  0  0  0
   10.4542  -10.3807    0.0000 N   0  0  0  0  0  0  0  0  0  0  0  0
   13.0547  -11.8767    0.0000 N   0  0  0  0  0  0  0  0  0  0  0  0
   14.3549  -12.6247    0.0000 C   0  0  0  0  0  0  0  0  0  0  0  0
    3.9591   -9.6318    0.0000 I   0  0  0  0  0  0  0  0  0  0  0  0
   14.3573  -14.1247    0.0000 O   0  0  0  0  0  0  0  0  0  0  0  0
   15.6527  -11.8727    0.0000 C   0  0  0  0  0  0  0  0  0  0  0  0
   16.9529  -12.6206    0.0000 C   0  0  0  0  0  0  0  0  0  0  0  0
   15.6504  -10.3727    0.0000 N   0  0  0  0  0  0  0  0  0  0  0  0
   16.9553  -14.1206    0.0000 C   0  0  0  0  0  0  0  0  0  0  0  0
   18.2555  -14.8686    0.0000 C   0  0  0  0  0  0  0  0  0  0  0  0
   15.6575  -14.8727    0.0000 C   0  0  0  0  0  0  0  0  0  0  0  0
   16.9484   -9.6206    0.0000 C   0  0  0  0  0  0  0  0  0  0  0  0
   16.9460   -8.1206    0.0000 O   0  0  0  0  0  0  0  0  0  0  0  0
   18.2485  -10.3686    0.0000 C   0  0  0  0  0  0  0  0  0  0  0  0
   18.2509  -11.8686    0.0000 N   0  0  0  0  0  0  0  0  0  0  0  0
   19.5464   -9.6166    0.0000 C   0  0  0  0  0  0  0  0  0  0  0  0
   20.8465  -10.3646    0.0000 C   0  0  0  0  0  0  0  0  0  0  0  0
   20.8416  -11.8607    0.0000 C   0  0  0  0  0  0  0  0  0  0  0  0
   22.1404  -12.6086    0.0000 C   0  0  0  0  0  0  0  0  0  0  0  0
   23.4400  -11.8564    0.0000 C   0  0  0  0  0  0  0  0  0  0  0  0
   23.4327  -10.3487    0.0000 C   0  0  0  0  0  0  0  0  0  0  0  0
   22.1331   -9.6077    0.0000 C   0  0  0  0  0  0  0  0  0  0  0  0
 13 16  1  0  0  0  0
  7  8  1  1  0  0  0
 16 17  1  1  0  0  0
 16 18  1  0  0  0  0
  7  9  1  0  0  0  0
 17 19  1  0  0  0  0
  4  5  1  0  0  0  0
 19 20  1  0  0  0  0
  9 10  1  0  0  0  0
 19 21  1  0  0  0  0
  2  3  1  0  0  0  0
 18 22  1  0  0  0  0
  9 11  1  1  0  0  0
 22 23  2  0  0  0  0
  5  6  2  0  0  0  0
 22 24  1  0  0  0  0
 10 12  1  0  0  0  0
 24 25  1  0  0  0  0
  6  1  1  0  0  0  0
 24 26  1  1  0  0  0
 12 13  1  0  0  0  0
 26 27  1  0  0  0  0
  1  2  2  0  0  0  0
 27 28  2  0  0  0  0
  1 14  1  0  0  0  0
 28 29  1  0  0  0  0
  4  7  1  0  0  0  0
 29 30  2  0  0  0  0
 13 15  2  0  0  0  0
 30 31  1  0  0  0  0
  3  4  2  0  0  0  0
 31 32  2  0  0  0  0
 32 27  1  0  0  0  0
M  END
> <Value>
3.977159389123472

> <Relation>
=

> <SourceURI>
mol:CHEMBL1819450

$$$$

Generated by Molecular Materials Informatics

 15 15  0  0  0  0  0  0  0  0999 V2000
    3.1709    0.3379    0.0000 C   0  0  0  0  0  0  0  0  0  0  0  0
    3.1689   -1.1662    0.0000 C   0  0  0  0  0  0  0  0  0  0  0  0
    4.4685   -1.9170    0.0000 C   0  0  0  0  0  0  0  0  0  0  0  0
    5.7710   -1.1655    0.0000 C   0  0  0  0  0  0  0  0  0  0  0  0
    5.7659    0.3447    0.0000 C   0  0  0  0  0  0  0  0  0  0  0  0
    4.4652    1.0885    0.0000 C   0  0  0  0  0  0  0  0  0  0  0  0
    1.8705    1.0872    0.0000 N   0  3  0  0  0  0  0  0  0  0  0  0
    0.5716    0.3369    0.0000 O   0  0  0  0  0  0  0  0  0  0  0  0
    1.8701    2.5872    0.0000 O   0  5  0  0  0  0  0  0  0  0  0  0
    7.0714   -1.9133    0.0000 C   0  0  0  0  0  0  0  0  0  0  0  0
    7.0736   -3.4133    0.0000 O   0  0  0  0  0  0  0  0  0  0  0  0
    8.3692   -1.1613    0.0000 C   0  0  0  0  0  0  0  0  0  0  0  0
    9.6694   -1.9093    0.0000 C   0  0  0  0  0  0  0  0  0  0  0  0
    8.3669    0.3387    0.0000 N   0  0  0  0  0  0  0  0  0  0  0  0
   10.9672   -1.1573    0.0000 N   0  0  0  0  0  0  0  0  0  0  0  0
  7  8  2  0  0  0  0
  7  9  1  0  0  0  0
  1  7  1  0  0  0  0
  4  5  1  0  0  0  0
  4 10  1  0  0  0  0
  2  3  1  0  0  0  0
 10 11  1  1  0  0  0
  5  6  2  0  0  0  0
 10 12  1  0  0  0  0
  6  1  1  0  0  0  0
 12 13  1  0  0  0  0
  1  2  2  0  0  0  0
 12 14  1  1  0  0  0
  3  4  2  0  0  0  0
 13 15  1  0  0  0  0
M  CHG  2   7   1   9  -1
M  END
> <Value>
3.0487110627223277

> <Relation>
=

> <SourceURI>
mol:CHEMBL1819451

$$$$

Generated by Molecular Materials Informatics

 21 21  0  0  0  0  0  0  0  0999 V2000
   19.8953   -0.0870    0.0000 N   0  0  0  0  0  0  0  0  0  0  0  0
   19.9431   -1.5910    0.0000 C   0  0  0  0  0  0  0  0  0  0  0  0
   21.2700   -2.3050    0.0000 C   0  0  0  0  0  0  0  0  0  0  0  0
   22.5419   -1.5083    0.0000 O   0  0  0  0  0  0  0  0  0  0  0  0
   18.7041   -3.8850    0.0000 O   0  0  0  0  0  0  0  0  0  0  0  0
   18.6565   -2.3885    0.0000 C   0  0  0  0  0  0  0  0  0  0  0  0
    9.5632   -0.1494    0.0000 C   0  0  0  0  0  0  0  0  0  0  0  0
    9.5613   -1.6534    0.0000 C   0  0  0  0  0  0  0  0  0  0  0  0
   10.8608   -2.4041    0.0000 C   0  0  0  0  0  0  0  0  0  0  0  0
   12.1633   -1.6527    0.0000 C   0  0  0  0  0  0  0  0  0  0  0  0
   12.1582   -0.1427    0.0000 C   0  0  0  0  0  0  0  0  0  0  0  0
   10.8576    0.6011    0.0000 C   0  0  0  0  0  0  0  0  0  0  0  0
    8.2629    0.5999    0.0000 N   0  3  0  0  0  0  0  0  0  0  0  0
    6.9641   -0.1505    0.0000 O   0  0  0  0  0  0  0  0  0  0  0  0
    8.2626    2.0999    0.0000 O   0  5  0  0  0  0  0  0  0  0  0  0
   13.4636   -2.4005    0.0000 C   0  0  0  0  0  0  0  0  0  0  0  0
   13.4658   -3.9005    0.0000 O   0  0  0  0  0  0  0  0  0  0  0  0
   14.7614   -1.6485    0.0000 C   0  0  0  0  0  0  0  0  0  0  0  0
   16.0615   -2.3965    0.0000 C   0  0  0  0  0  0  0  0  0  0  0  0
   14.7590   -0.1487    0.0000 N   0  0  0  0  0  0  0  0  0  0  0  0
   17.3592   -1.6445    0.0000 N   0  0  0  0  0  0  0  0  0  0  0  0
  2  1  1  0  0  0  0
 11 12  2  0  0  0  0
 12  7  1  0  0  0  0
  2  3  1  1  0  0  0
  7  8  2  0  0  0  0
 13 14  2  0  0  0  0
 13 15  1  0  0  0  0
  7 13  1  0  0  0  0
  3  4  1  0  0  0  0
 10 16  1  0  0  0  0
  8  9  1  0  0  0  0
 16 17  1  1  0  0  0
  5  6  2  0  0  0  0
 16 18  1  0  0  0  0
  9 10  2  0  0  0  0
 18 19  1  0  0  0  0
  6  2  1  0  0  0  0
 18 20  1  1  0  0  0
 10 11  1  0  0  0  0
 19 21  1  0  0  0  0
 21  6  1  0  0  0  0
M  CHG  2  13   1  15  -1
M  END
> <Value>
3.3741732867142886

> <Relation>
=

> <SourceURI>
mol:CHEMBL1819320

$$$$

Generated by Molecular Materials Informatics

 21 21  0  0  0  0  0  0  0  0999 V2000
   -6.2358   -6.2786    0.0000 C   0  0  0  0  0  0  0  0  0  0  0  0
   -6.2378   -7.7830    0.0000 C   0  0  0  0  0  0  0  0  0  0  0  0
   -4.9381   -8.5337    0.0000 C   0  0  0  0  0  0  0  0  0  0  0  0
   -3.6356   -7.7821    0.0000 C   0  0  0  0  0  0  0  0  0  0  0  0
   -3.6407   -6.2721    0.0000 C   0  0  0  0  0  0  0  0  0  0  0  0
   -4.9414   -5.5282    0.0000 C   0  0  0  0  0  0  0  0  0  0  0  0
   -7.5361   -5.5293    0.0000 N   0  3  0  0  0  0  0  0  0  0  0  0
   -8.8351   -6.2797    0.0000 O   0  0  0  0  0  0  0  0  0  0  0  0
   -7.5365   -4.0293    0.0000 O   0  5  0  0  0  0  0  0  0  0  0  0
   -2.3352   -8.5301    0.0000 C   0  0  0  0  0  0  0  0  0  0  0  0
   -2.3331  -10.0301    0.0000 O   0  0  0  0  0  0  0  0  0  0  0  0
   -1.0374   -7.7781    0.0000 C   0  0  0  0  0  0  0  0  0  0  0  0
    0.2628   -8.5261    0.0000 C   0  0  0  0  0  0  0  0  0  0  0  0
   -1.0398   -6.2781    0.0000 N   0  0  0  0  0  0  0  0  0  0  0  0
    1.5606   -7.7739    0.0000 N   0  0  0  0  0  0  0  0  0  0  0  0
    2.8608   -8.5219    0.0000 C   0  0  0  0  0  0  0  0  0  0  0  0
    2.8631  -10.0219    0.0000 O   0  0  0  0  0  0  0  0  0  0  0  0
    4.1588   -7.7699    0.0000 C   0  0  0  0  0  0  0  0  0  0  0  0
    5.4589   -8.5179    0.0000 C   0  0  0  0  0  0  0  0  0  0  0  0
    4.1564   -6.2699    0.0000 O   0  0  0  0  0  0  0  0  0  0  0  0
    6.7568   -7.7659    0.0000 N   0  0  0  0  0  0  0  0  0  0  0  0
  2  3  1  0  0  0  0
 10 11  1  1  0  0  0
  5  6  2  0  0  0  0
 10 12  1  0  0  0  0
  6  1  1  0  0  0  0
 12 13  1  0  0  0  0
  1  2  2  0  0  0  0
 12 14  1  1  0  0  0
  3  4  2  0  0  0  0
 13 15  1  0  0  0  0
 15 16  1  0  0  0  0
  7  8  2  0  0  0  0
 16 17  2  0  0  0  0
  7  9  1  0  0  0  0
 16 18  1  0  0  0  0
  1  7  1  0  0  0  0
 18 19  1  0  0  0  0
  4  5  1  0  0  0  0
 18 20  1  1  0  0  0
  4 10  1  0  0  0  0
 19 21  1  0  0  0  0
M  CHG  2   7   1   9  -1
M  END
> <Value>
3.7864822430036953

> <Relation>
=

> <SourceURI>
mol:CHEMBL1819321

$$$$

Generated by Molecular Materials Informatics

 21 21  0  0  0  0  0  0  0  0999 V2000
   13.9855   -6.7061    0.0000 N   0  0  0  0  0  0  0  0  0  0  0  0
   14.0540   -8.2646    0.0000 C   0  0  0  0  0  0  0  0  0  0  0  0
   12.6462   -8.7719    0.0000 C   0  0  0  0  0  0  0  0  0  0  0  0
   12.6602  -10.2613    0.0000 O   0  0  0  0  0  0  0  0  0  0  0  0
   15.2997   -9.0955    0.0000 C   0  0  0  0  0  0  0  0  0  0  0  0
    3.5497   -6.5286    0.0000 C   0  0  0  0  0  0  0  0  0  0  0  0
    3.5475   -8.0330    0.0000 C   0  0  0  0  0  0  0  0  0  0  0  0
    4.8471   -8.7837    0.0000 C   0  0  0  0  0  0  0  0  0  0  0  0
    6.1498   -8.0321    0.0000 C   0  0  0  0  0  0  0  0  0  0  0  0
    6.1446   -6.5221    0.0000 C   0  0  0  0  0  0  0  0  0  0  0  0
    4.8438   -5.7782    0.0000 C   0  0  0  0  0  0  0  0  0  0  0  0
    2.2491   -5.7793    0.0000 N   0  3  0  0  0  0  0  0  0  0  0  0
    0.9502   -6.5297    0.0000 O   0  0  0  0  0  0  0  0  0  0  0  0
    2.2488   -4.2793    0.0000 O   0  5  0  0  0  0  0  0  0  0  0  0
    7.4500   -8.7801    0.0000 C   0  0  0  0  0  0  0  0  0  0  0  0
    7.4524  -10.2801    0.0000 O   0  0  0  0  0  0  0  0  0  0  0  0
    8.7478   -8.0281    0.0000 C   0  0  0  0  0  0  0  0  0  0  0  0
   10.0480   -8.7761    0.0000 C   0  0  0  0  0  0  0  0  0  0  0  0
    8.7455   -6.5281    0.0000 N   0  0  0  0  0  0  0  0  0  0  0  0
   11.3458   -8.0239    0.0000 N   0  0  0  0  0  0  0  0  0  0  0  0
   16.6444   -8.4310    0.0000 S   0  0  0  0  0  0  0  0  0  0  0  0
 11  6  1  0  0  0  0
  2  1  1  0  0  0  0
  6  7  2  0  0  0  0
  2  3  1  0  0  0  0
 12 13  2  0  0  0  0
 12 14  1  0  0  0  0
  6 12  1  0  0  0  0
  7  8  1  0  0  0  0
  9 15  1  0  0  0  0
  3  4  2  0  0  0  0
 15 16  1  1  0  0  0
  8  9  2  0  0  0  0
 15 17  1  0  0  0  0
  2  5  1  1  0  0  0
 17 18  1  0  0  0  0
  9 10  1  0  0  0  0
 17 19  1  1  0  0  0
 18 20  1  0  0  0  0
 20  3  1  0  0  0  0
 10 11  2  0  0  0  0
  5 21  1  0  0  0  0
M  CHG  2  12   1  14  -1
M  END
> <Value>
4.906578314837765

> <Relation>
=

> <SourceURI>
mol:CHEMBL1819319

$$$$

Generated by Molecular Materials Informatics

 24 24  0  0  0  0  0  0  0  0999 V2000
   -7.1711  -11.4453    0.0000 C   0  0  0  0  0  0  0  0  0  0  0  0
   -7.1733  -12.9497    0.0000 C   0  0  0  0  0  0  0  0  0  0  0  0
   -5.8735  -13.7002    0.0000 C   0  0  0  0  0  0  0  0  0  0  0  0
   -4.5709  -12.9488    0.0000 C   0  0  0  0  0  0  0  0  0  0  0  0
   -4.5762  -11.4388    0.0000 C   0  0  0  0  0  0  0  0  0  0  0  0
   -5.8768  -10.6948    0.0000 C   0  0  0  0  0  0  0  0  0  0  0  0
   -8.4717  -10.6960    0.0000 N   0  3  0  0  0  0  0  0  0  0  0  0
   -9.7706  -11.4464    0.0000 O   0  0  0  0  0  0  0  0  0  0  0  0
   -8.4720   -9.1960    0.0000 O   0  5  0  0  0  0  0  0  0  0  0  0
   -3.2708  -13.6968    0.0000 C   0  0  0  0  0  0  0  0  0  0  0  0
   -3.2684  -15.1968    0.0000 O   0  0  0  0  0  0  0  0  0  0  0  0
   -1.9730  -12.9446    0.0000 C   0  0  0  0  0  0  0  0  0  0  0  0
   -0.6726  -13.6926    0.0000 C   0  0  0  0  0  0  0  0  0  0  0  0
   -1.9753  -11.4446    0.0000 N   0  0  0  0  0  0  0  0  0  0  0  0
    0.6252  -12.9406    0.0000 N   0  0  0  0  0  0  0  0  0  0  0  0
    1.9254  -13.6886    0.0000 C   0  0  0  0  0  0  0  0  0  0  0  0
    1.9278  -15.1886    0.0000 O   0  0  0  0  0  0  0  0  0  0  0  0
    3.2232  -12.9366    0.0000 C   0  0  0  0  0  0  0  0  0  0  0  0
    4.5234  -13.6844    0.0000 C   0  0  0  0  0  0  0  0  0  0  0  0
    5.8214  -12.9324    0.0000 C   0  0  0  0  0  0  0  0  0  0  0  0
    7.1216  -13.6804    0.0000 C   0  0  0  0  0  0  0  0  0  0  0  0
    8.4194  -12.9284    0.0000 C   0  0  0  0  0  0  0  0  0  0  0  0
    9.7196  -13.6764    0.0000 N   0  0  0  0  0  0  0  0  0  0  0  0
    3.2209  -11.4366    0.0000 N   0  0  0  0  0  0  0  0  0  0  0  0
 10 12  1  0  0  0  0
  6  1  1  0  0  0  0
 12 13  1  0  0  0  0
  1  2  2  0  0  0  0
 12 14  1  1  0  0  0
  3  4  2  0  0  0  0
 13 15  1  0  0  0  0
 15 16  1  0  0  0  0
  7  8  2  0  0  0  0
 16 17  2  0  0  0  0
  7  9  1  0  0  0  0
 16 18  1  0  0  0  0
  1  7  1  0  0  0  0
 18 19  1  1  0  0  0
  4  5  1  0  0  0  0
 19 20  1  0  0  0  0
  4 10  1  0  0  0  0
 20 21  1  0  0  0  0
  2  3  1  0  0  0  0
 21 22  1  0  0  0  0
 10 11  1  1  0  0  0
 22 23  1  0  0  0  0
  5  6  2  0  0  0  0
 18 24  1  0  0  0  0
M  CHG  2   7   1   9  -1
M  END
> <Value>
4.300162274132754

> <Relation>
=

> <SourceURI>
mol:CHEMBL1819323

$$$$

Generated by Molecular Materials Informatics

 26 27  0  0  0  0  0  0  0  0999 V2000
   12.5045  -14.7674    0.0000 O   0  0  0  0  0  0  0  0  0  0  0  0
   12.4865  -13.4011    0.0000 C   0  0  0  0  0  0  0  0  0  0  0  0
    3.3900  -11.1578    0.0000 C   0  0  0  0  0  0  0  0  0  0  0  0
    3.3878  -12.6622    0.0000 C   0  0  0  0  0  0  0  0  0  0  0  0
    4.6874  -13.4127    0.0000 C   0  0  0  0  0  0  0  0  0  0  0  0
    5.9902  -12.6613    0.0000 C   0  0  0  0  0  0  0  0  0  0  0  0
    5.9849  -11.1513    0.0000 C   0  0  0  0  0  0  0  0  0  0  0  0
    4.6842  -10.4073    0.0000 C   0  0  0  0  0  0  0  0  0  0  0  0
    2.0894  -10.4085    0.0000 N   0  3  0  0  0  0  0  0  0  0  0  0
    0.7905  -11.1589    0.0000 O   0  0  0  0  0  0  0  0  0  0  0  0
    2.0891   -8.9085    0.0000 O   0  5  0  0  0  0  0  0  0  0  0  0
    7.2904  -13.4093    0.0000 C   0  0  0  0  0  0  0  0  0  0  0  0
    7.2927  -14.9093    0.0000 O   0  0  0  0  0  0  0  0  0  0  0  0
    8.5882  -12.6571    0.0000 C   0  0  0  0  0  0  0  0  0  0  0  0
    9.8883  -13.4051    0.0000 C   0  0  0  0  0  0  0  0  0  0  0  0
    8.5858  -11.1571    0.0000 N   0  0  0  0  0  0  0  0  0  0  0  0
   11.1862  -12.6531    0.0000 N   0  0  0  0  0  0  0  0  0  0  0  0
   13.7800  -12.6414    0.0000 C   0  0  0  0  0  0  0  0  0  0  0  0
   15.0845  -13.3818    0.0000 C   0  0  0  0  0  0  0  0  0  0  0  0
   13.7687  -11.1414    0.0000 N   0  0  0  0  0  0  0  0  0  0  0  0
   16.3780  -12.6222    0.0000 C   0  0  0  0  0  0  0  0  0  0  0  0
   17.6796  -13.3673    0.0000 C   0  0  0  0  0  0  0  0  0  0  0  0
   18.9722  -12.6089    0.0000 C   0  0  0  0  0  0  0  0  0  0  0  0
   18.9618  -11.1073    0.0000 C   0  0  0  0  0  0  0  0  0  0  0  0
   17.6482  -10.3673    0.0000 C   0  0  0  0  0  0  0  0  0  0  0  0
   16.3609  -11.1300    0.0000 C   0  0  0  0  0  0  0  0  0  0  0  0
 12 14  1  0  0  0  0
  7  8  2  0  0  0  0
 14 15  1  0  0  0  0
  8  3  1  0  0  0  0
 14 16  1  1  0  0  0
  4  5  1  0  0  0  0
 15 17  1  0  0  0  0
 17  2  1  0  0  0  0
  1  2  2  0  0  0  0
  2 18  1  0  0  0  0
  5  6  2  0  0  0  0
 18 19  1  6  0  0  0
  9 10  2  0  0  0  0
 18 20  1  0  0  0  0
  9 11  1  0  0  0  0
 19 21  1  0  0  0  0
  3  9  1  0  0  0  0
 21 22  2  0  0  0  0
  3  4  2  0  0  0  0
 22 23  1  0  0  0  0
  6 12  1  0  0  0  0
 23 24  2  0  0  0  0
  6  7  1  0  0  0  0
 24 25  1  0  0  0  0
 12 13  1  1  0  0  0
 25 26  2  0  0  0  0
 26 21  1  0  0  0  0
M  CHG  2   9   1  11  -1
M  END
> <Value>
4.374687549038326

> <Relation>
=

> <SourceURI>
mol:CHEMBL1819324

$$$$

Generated by Molecular Materials Informatics

 27 28  0  0  0  0  0  0  0  0999 V2000
   14.1180  -11.2370    0.0000 C   0  0  0  0  0  0  0  0  0  0  0  0
   14.1158  -12.7412    0.0000 C   0  0  0  0  0  0  0  0  0  0  0  0
   15.4156  -13.4920    0.0000 C   0  0  0  0  0  0  0  0  0  0  0  0
   16.7182  -12.7405    0.0000 C   0  0  0  0  0  0  0  0  0  0  0  0
   16.7129  -11.2303    0.0000 C   0  0  0  0  0  0  0  0  0  0  0  0
   15.4124  -10.4865    0.0000 C   0  0  0  0  0  0  0  0  0  0  0  0
   12.8175  -10.4878    0.0000 N   0  3  0  0  0  0  0  0  0  0  0  0
   11.5185  -11.2381    0.0000 O   0  0  0  0  0  0  0  0  0  0  0  0
   12.8171   -8.9878    0.0000 O   0  5  0  0  0  0  0  0  0  0  0  0
   18.0184  -13.4883    0.0000 C   0  0  0  0  0  0  0  0  0  0  0  0
   18.0207  -14.9883    0.0000 O   0  0  0  0  0  0  0  0  0  0  0  0
   19.3162  -12.7363    0.0000 C   0  0  0  0  0  0  0  0  0  0  0  0
   20.6165  -13.4843    0.0000 C   0  0  0  0  0  0  0  0  0  0  0  0
   19.3138  -11.2363    0.0000 N   0  0  0  0  0  0  0  0  0  0  0  0
   21.9144  -12.7323    0.0000 N   0  0  0  0  0  0  0  0  0  0  0  0
   23.2145  -13.4801    0.0000 C   0  0  0  0  0  0  0  0  0  0  0  0
   23.2169  -14.9801    0.0000 O   0  0  0  0  0  0  0  0  0  0  0  0
   24.5124  -12.7281    0.0000 C   0  0  0  0  0  0  0  0  0  0  0  0
   25.8125  -13.4761    0.0000 C   0  0  0  0  0  0  0  0  0  0  0  0
   24.5100  -11.2281    0.0000 N   0  0  0  0  0  0  0  0  0  0  0  0
   27.1105  -12.7241    0.0000 C   0  0  0  0  0  0  0  0  0  0  0  0
   28.4093  -13.4741    0.0000 C   0  0  0  0  0  0  0  0  0  0  0  0
   29.7062  -12.7234    0.0000 C   0  0  0  0  0  0  0  0  0  0  0  0
   29.7047  -11.2218    0.0000 C   0  0  0  0  0  0  0  0  0  0  0  0
   28.3953  -10.4741    0.0000 C   0  0  0  0  0  0  0  0  0  0  0  0
   27.1036  -11.2292    0.0000 C   0  0  0  0  0  0  0  0  0  0  0  0
   31.0014  -10.4680    0.0000 O   0  0  0  0  0  0  0  0  0  0  0  0
  1  2  2  0  0  0  0
 12 14  1  1  0  0  0
  3  4  2  0  0  0  0
 13 15  1  0  0  0  0
 15 16  1  0  0  0  0
  7  8  2  0  0  0  0
 16 17  2  0  0  0  0
  7  9  1  0  0  0  0
 16 18  1  0  0  0  0
  1  7  1  0  0  0  0
 18 19  1  1  0  0  0
  4  5  1  0  0  0  0
 18 20  1  0  0  0  0
  4 10  1  0  0  0  0
 19 21  1  0  0  0  0
  2  3  1  0  0  0  0
 21 22  2  0  0  0  0
 10 11  1  1  0  0  0
 22 23  1  0  0  0  0
  5  6  2  0  0  0  0
 23 24  2  0  0  0  0
 10 12  1  0  0  0  0
 24 25  1  0  0  0  0
  6  1  1  0  0  0  0
 25 26  2  0  0  0  0
 26 21  1  0  0  0  0
 12 13  1  0  0  0  0
 24 27  1  0  0  0  0
M  CHG  2   7   1   9  -1
M  END
> <Value>
4.406713932979542

> <Relation>
=

> <SourceURI>
mol:CHEMBL1819325

$$$$

Generated by Molecular Materials Informatics

 28 30  0  0  0  0  0  0  0  0999 V2000
    8.5973  -18.3056    0.0000 C   0  0  0  0  0  0  0  0  0  0  0  0
    8.5977  -16.8013    0.0000 C   0  0  0  0  0  0  0  0  0  0  0  0
    7.2971  -16.0522    0.0000 C   0  0  0  0  0  0  0  0  0  0  0  0
    7.3040  -19.0576    0.0000 C   0  0  0  0  0  0  0  0  0  0  0  0
    6.0024  -18.3153    0.0000 C   0  0  0  0  0  0  0  0  0  0  0  0
    6.0027  -16.8089    0.0000 C   0  0  0  0  0  0  0  0  0  0  0  0
    4.7055  -16.0596    0.0000 C   0  0  0  0  0  0  0  0  0  0  0  0
    3.3997  -16.8084    0.0000 N   0  0  0  0  0  0  0  0  0  0  0  0
    3.3995  -18.3147    0.0000 C   0  0  0  0  0  0  0  0  0  0  0  0
    4.7049  -19.0724    0.0000 C   0  0  0  0  0  0  0  0  0  0  0  0
    2.0995  -19.0631    0.0000 C   0  0  0  0  0  0  0  0  0  0  0  0
    2.0977  -20.5631    0.0000 O   0  0  0  0  0  0  0  0  0  0  0  0
    9.8964  -16.0507    0.0000 O   0  0  0  0  0  0  0  0  0  0  0  0
   -6.9912  -16.8246    0.0000 C   0  0  0  0  0  0  0  0  0  0  0  0
   -6.9934  -18.3287    0.0000 C   0  0  0  0  0  0  0  0  0  0  0  0
   -5.6938  -19.0795    0.0000 C   0  0  0  0  0  0  0  0  0  0  0  0
   -4.3910  -18.3280    0.0000 C   0  0  0  0  0  0  0  0  0  0  0  0
   -4.3963  -16.8178    0.0000 C   0  0  0  0  0  0  0  0  0  0  0  0
   -5.6970  -16.0740    0.0000 C   0  0  0  0  0  0  0  0  0  0  0  0
   -8.2918  -16.0753    0.0000 N   0  3  0  0  0  0  0  0  0  0  0  0
   -9.5907  -16.8256    0.0000 O   0  0  0  0  0  0  0  0  0  0  0  0
   -8.2921  -14.5753    0.0000 O   0  5  0  0  0  0  0  0  0  0  0  0
   -3.0909  -19.0758    0.0000 C   0  0  0  0  0  0  0  0  0  0  0  0
   -3.0885  -20.5758    0.0000 O   0  0  0  0  0  0  0  0  0  0  0  0
   -1.7931  -18.3238    0.0000 C   0  0  0  0  0  0  0  0  0  0  0  0
   -0.4929  -19.0718    0.0000 C   0  0  0  0  0  0  0  0  0  0  0  0
   -1.7954  -16.8238    0.0000 N   0  0  0  0  0  0  0  0  0  0  0  0
    0.8049  -18.3198    0.0000 N   0  0  0  0  0  0  0  0  0  0  0  0
  3  6  2  0  0  0  0
  1  2  2  0  0  0  0
 14 15  2  0  0  0  0
  5  4  2  0  0  0  0
 15 16  1  0  0  0  0
  4  1  1  0  0  0  0
 16 17  2  0  0  0  0
  5 10  1  0  0  0  0
 17 18  1  0  0  0  0
  6  7  1  0  0  0  0
 18 19  2  0  0  0  0
 19 14  1  0  0  0  0
  7  8  1  0  0  0  0
  8  9  1  0  0  0  0
  9 10  1  0  0  0  0
 20 21  2  0  0  0  0
 20 22  1  0  0  0  0
 14 20  1  0  0  0  0
  5  6  1  0  0  0  0
 17 23  1  0  0  0  0
  9 11  1  1  0  0  0
 23 24  1  1  0  0  0
 23 25  1  0  0  0  0
 11 12  2  0  0  0  0
 25 26  1  0  0  0  0
  2  3  1  0  0  0  0
 25 27  1  1  0  0  0
  2 13  1  0  0  0  0
 26 28  1  0  0  0  0
 28 11  1  0  0  0  0
M  CHG  2  20   1  22  -1
M  END
> <Value>
3.3552660725528076

> <Relation>
=

> <SourceURI>
mol:CHEMBL1819326

$$$$

Generated by Molecular Materials Informatics

 29 29  0  0  0  0  0  0  0  0999 V2000
    6.8799  -17.6174    0.0000 C   0  0  0  0  0  0  0  0  0  0  0  0
    6.8777  -19.1216    0.0000 C   0  0  0  0  0  0  0  0  0  0  0  0
    8.1776  -19.8723    0.0000 C   0  0  0  0  0  0  0  0  0  0  0  0
    9.4801  -19.1209    0.0000 C   0  0  0  0  0  0  0  0  0  0  0  0
    9.4748  -17.6107    0.0000 C   0  0  0  0  0  0  0  0  0  0  0  0
    8.1743  -16.8669    0.0000 C   0  0  0  0  0  0  0  0  0  0  0  0
    5.5794  -16.8681    0.0000 N   0  3  0  0  0  0  0  0  0  0  0  0
    4.2805  -17.6185    0.0000 O   0  0  0  0  0  0  0  0  0  0  0  0
    5.5790  -15.3681    0.0000 O   0  5  0  0  0  0  0  0  0  0  0  0
   10.7803  -19.8687    0.0000 C   0  0  0  0  0  0  0  0  0  0  0  0
   10.7827  -21.3687    0.0000 O   0  0  0  0  0  0  0  0  0  0  0  0
   12.0781  -19.1167    0.0000 C   0  0  0  0  0  0  0  0  0  0  0  0
   13.3785  -19.8647    0.0000 C   0  0  0  0  0  0  0  0  0  0  0  0
   12.0758  -17.6167    0.0000 N   0  0  0  0  0  0  0  0  0  0  0  0
   14.6763  -19.1127    0.0000 N   0  0  0  0  0  0  0  0  0  0  0  0
   15.9765  -19.8605    0.0000 C   0  0  0  0  0  0  0  0  0  0  0  0
   15.9788  -21.3605    0.0000 O   0  0  0  0  0  0  0  0  0  0  0  0
   17.2743  -19.1085    0.0000 C   0  0  0  0  0  0  0  0  0  0  0  0
   17.2719  -17.6085    0.0000 N   0  0  0  0  0  0  0  0  0  0  0  0
   18.5698  -16.8565    0.0000 C   0  0  0  0  0  0  0  0  0  0  0  0
   19.8701  -17.6045    0.0000 O   0  0  0  0  0  0  0  0  0  0  0  0
   18.5676  -15.3565    0.0000 C   0  0  0  0  0  0  0  0  0  0  0  0
   19.8654  -14.6045    0.0000 C   0  0  0  0  0  0  0  0  0  0  0  0
   19.8630  -13.1045    0.0000 N   0  0  0  0  0  0  0  0  0  0  0  0
   17.2672  -14.6085    0.0000 O   0  0  0  0  0  0  0  0  0  0  0  0
   18.5745  -19.8565    0.0000 C   0  0  0  0  0  0  0  0  0  0  0  0
   18.5768  -21.3565    0.0000 C   0  0  0  0  0  0  0  0  0  0  0  0
   19.8770  -22.1045    0.0000 C   0  0  0  0  0  0  0  0  0  0  0  0
   17.2790  -22.1085    0.0000 C   0  0  0  0  0  0  0  0  0  0  0  0
  3  4  2  0  0  0  0
 13 15  1  0  0  0  0
 15 16  1  0  0  0  0
  7  8  2  0  0  0  0
 16 17  2  0  0  0  0
  7  9  1  0  0  0  0
 16 18  1  0  0  0  0
  1  7  1  0  0  0  0
 18 19  1  0  0  0  0
  4  5  1  0  0  0  0
 19 20  1  0  0  0  0
  4 10  1  0  0  0  0
 20 21  2  0  0  0  0
  2  3  1  0  0  0  0
 20 22  1  0  0  0  0
 10 11  1  1  0  0  0
 22 23  1  0  0  0  0
  5  6  2  0  0  0  0
 23 24  1  0  0  0  0
 10 12  1  0  0  0  0
 22 25  1  1  0  0  0
  6  1  1  0  0  0  0
 18 26  1  1  0  0  0
 12 13  1  0  0  0  0
 26 27  1  0  0  0  0
  1  2  2  0  0  0  0
 27 28  1  0  0  0  0
 12 14  1  1  0  0  0
 27 29  1  0  0  0  0
M  CHG  2   7   1   9  -1
M  END
> <Value>
4.707743928643524

> <Relation>
=

> <SourceURI>
mol:CHEMBL1819327

$$$$

Generated by Molecular Materials Informatics

 34 35  0  0  0  0  0  0  0  0999 V2000
   -6.9826  -21.9196    0.0000 C   0  0  0  0  0  0  0  0  0  0  0  0
   -6.9848  -23.4238    0.0000 C   0  0  0  0  0  0  0  0  0  0  0  0
   -5.6849  -24.1745    0.0000 C   0  0  0  0  0  0  0  0  0  0  0  0
   -4.3824  -23.4230    0.0000 C   0  0  0  0  0  0  0  0  0  0  0  0
   -4.3877  -21.9129    0.0000 C   0  0  0  0  0  0  0  0  0  0  0  0
   -5.6882  -21.1690    0.0000 C   0  0  0  0  0  0  0  0  0  0  0  0
   -8.2831  -21.1703    0.0000 N   0  3  0  0  0  0  0  0  0  0  0  0
   -9.5820  -21.9207    0.0000 O   0  0  0  0  0  0  0  0  0  0  0  0
   -8.2835  -19.6703    0.0000 O   0  5  0  0  0  0  0  0  0  0  0  0
   -3.0822  -24.1709    0.0000 C   0  0  0  0  0  0  0  0  0  0  0  0
   -3.0798  -25.6708    0.0000 O   0  0  0  0  0  0  0  0  0  0  0  0
   -1.7844  -23.4188    0.0000 C   0  0  0  0  0  0  0  0  0  0  0  0
   -0.4840  -24.1668    0.0000 C   0  0  0  0  0  0  0  0  0  0  0  0
   -1.7868  -21.9188    0.0000 N   0  0  0  0  0  0  0  0  0  0  0  0
    0.8138  -23.4149    0.0000 N   0  0  0  0  0  0  0  0  0  0  0  0
    2.1140  -24.1627    0.0000 C   0  0  0  0  0  0  0  0  0  0  0  0
    2.1163  -25.6627    0.0000 O   0  0  0  0  0  0  0  0  0  0  0  0
    3.4118  -23.4107    0.0000 C   0  0  0  0  0  0  0  0  0  0  0  0
    4.7120  -24.1587    0.0000 C   0  0  0  0  0  0  0  0  0  0  0  0
    3.4094  -21.9107    0.0000 N   0  0  0  0  0  0  0  0  0  0  0  0
    4.7072  -21.1587    0.0000 C   0  0  0  0  0  0  0  0  0  0  0  0
    4.7051  -19.6587    0.0000 O   0  0  0  0  0  0  0  0  0  0  0  0
    6.0076  -21.9067    0.0000 C   0  0  0  0  0  0  0  0  0  0  0  0
    4.7143  -25.6587    0.0000 C   0  0  0  0  0  0  0  0  0  0  0  0
    3.4134  -26.4009    0.0000 C   0  0  0  0  0  0  0  0  0  0  0  0
    3.4152  -27.8996    0.0000 C   0  0  0  0  0  0  0  0  0  0  0  0
    4.7163  -28.6490    0.0000 C   0  0  0  0  0  0  0  0  0  0  0  0
    6.0185  -27.8888    0.0000 C   0  0  0  0  0  0  0  0  0  0  0  0
    6.0105  -26.3927    0.0000 C   0  0  0  0  0  0  0  0  0  0  0  0
    6.0100  -23.4067    0.0000 N   0  0  0  0  0  0  0  0  0  0  0  0
    7.3054  -21.1547    0.0000 C   0  0  0  0  0  0  0  0  0  0  0  0
    8.6056  -21.9025    0.0000 C   0  0  0  0  0  0  0  0  0  0  0  0
    9.9034  -21.1505    0.0000 C   0  0  0  0  0  0  0  0  0  0  0  0
    8.6080  -23.4025    0.0000 C   0  0  0  0  0  0  0  0  0  0  0  0
 16 17  2  0  0  0  0
  7  9  1  0  0  0  0
 16 18  1  0  0  0  0
  1  7  1  0  0  0  0
 18 19  1  6  0  0  0
  4  5  1  0  0  0  0
 18 20  1  0  0  0  0
  4 10  1  0  0  0  0
 20 21  1  0  0  0  0
  2  3  1  0  0  0  0
 21 22  2  0  0  0  0
 10 11  1  1  0  0  0
 21 23  1  0  0  0  0
  5  6  2  0  0  0  0
 19 24  1  0  0  0  0
 10 12  1  0  0  0  0
 24 25  2  0  0  0  0
  6  1  1  0  0  0  0
 25 26  1  0  0  0  0
 12 13  1  0  0  0  0
 26 27  2  0  0  0  0
  1  2  2  0  0  0  0
 27 28  1  0  0  0  0
 12 14  1  1  0  0  0
 28 29  2  0  0  0  0
 29 24  1  0  0  0  0
  3  4  2  0  0  0  0
 23 30  1  0  0  0  0
 13 15  1  0  0  0  0
 23 31  1  6  0  0  0
 31 32  1  0  0  0  0
 15 16  1  0  0  0  0
 32 33  1  0  0  0  0
  7  8  2  0  0  0  0
 32 34  1  0  0  0  0
M  CHG  2   7   1   9  -1
M  END
> <Value>
5.026872146400302

> <Relation>
=

> <SourceURI>
mol:CHEMBL1819328

$$$$

Generated by Molecular Materials Informatics

 32 33  0  0  0  0  0  0  0  0999 V2000
    5.8858  -23.8929    0.0000 C   0  0  0  0  0  0  0  0  0  0  0  0
    5.8836  -25.3972    0.0000 C   0  0  0  0  0  0  0  0  0  0  0  0
    7.1833  -26.1478    0.0000 C   0  0  0  0  0  0  0  0  0  0  0  0
    8.4860  -25.3963    0.0000 C   0  0  0  0  0  0  0  0  0  0  0  0
    8.4807  -23.8863    0.0000 C   0  0  0  0  0  0  0  0  0  0  0  0
    7.1800  -23.1423    0.0000 C   0  0  0  0  0  0  0  0  0  0  0  0
    4.5853  -23.1436    0.0000 N   0  3  0  0  0  0  0  0  0  0  0  0
    3.2863  -23.8940    0.0000 O   0  0  0  0  0  0  0  0  0  0  0  0
    4.5849  -21.6436    0.0000 O   0  5  0  0  0  0  0  0  0  0  0  0
    9.7862  -26.1443    0.0000 C   0  0  0  0  0  0  0  0  0  0  0  0
    9.7885  -27.6443    0.0000 O   0  0  0  0  0  0  0  0  0  0  0  0
   11.0840  -25.3921    0.0000 C   0  0  0  0  0  0  0  0  0  0  0  0
   12.3842  -26.1401    0.0000 C   0  0  0  0  0  0  0  0  0  0  0  0
   11.0816  -23.8921    0.0000 N   0  0  0  0  0  0  0  0  0  0  0  0
   13.6820  -25.3881    0.0000 N   0  0  0  0  0  0  0  0  0  0  0  0
   14.9824  -26.1361    0.0000 C   0  0  0  0  0  0  0  0  0  0  0  0
   16.2802  -25.3841    0.0000 C   0  0  0  0  0  0  0  0  0  0  0  0
   14.9847  -27.6361    0.0000 O   0  0  0  0  0  0  0  0  0  0  0  0
   17.5804  -26.1320    0.0000 C   0  0  0  0  0  0  0  0  0  0  0  0
   18.8782  -25.3800    0.0000 O   0  0  0  0  0  0  0  0  0  0  0  0
   16.2778  -23.8841    0.0000 N   0  0  0  0  0  0  0  0  0  0  0  0
   17.5756  -23.1320    0.0000 C   0  0  0  0  0  0  0  0  0  0  0  0
   17.5733  -21.6320    0.0000 C   0  0  0  0  0  0  0  0  0  0  0  0
   18.8758  -23.8800    0.0000 O   0  0  0  0  0  0  0  0  0  0  0  0
   18.8711  -20.8800    0.0000 C   0  0  0  0  0  0  0  0  0  0  0  0
   16.2731  -20.8841    0.0000 N   0  0  0  0  0  0  0  0  0  0  0  0
   20.1714  -21.6280    0.0000 C   0  0  0  0  0  0  0  0  0  0  0  0
   20.1660  -23.1298    0.0000 C   0  0  0  0  0  0  0  0  0  0  0  0
   21.4647  -23.8776    0.0000 C   0  0  0  0  0  0  0  0  0  0  0  0
   22.7644  -23.1254    0.0000 C   0  0  0  0  0  0  0  0  0  0  0  0
   22.7571  -21.6176    0.0000 C   0  0  0  0  0  0  0  0  0  0  0  0
   21.4574  -20.8767    0.0000 C   0  0  0  0  0  0  0  0  0  0  0  0
 15 16  1  0  0  0  0
  7  8  2  0  0  0  0
 16 17  1  0  0  0  0
  7  9  1  0  0  0  0
 16 18  2  0  0  0  0
  1  7  1  0  0  0  0
 17 19  1  1  0  0  0
  4  5  1  0  0  0  0
 19 20  1  0  0  0  0
  4 10  1  0  0  0  0
 17 21  1  0  0  0  0
  2  3  1  0  0  0  0
 21 22  1  0  0  0  0
 10 11  1  1  0  0  0
 22 23  1  0  0  0  0
  5  6  2  0  0  0  0
 22 24  2  0  0  0  0
 10 12  1  0  0  0  0
 23 25  1  6  0  0  0
  6  1  1  0  0  0  0
 23 26  1  0  0  0  0
 12 13  1  0  0  0  0
 25 27  1  0  0  0  0
  1  2  2  0  0  0  0
 27 28  2  0  0  0  0
 12 14  1  1  0  0  0
 28 29  1  0  0  0  0
  3  4  2  0  0  0  0
 29 30  2  0  0  0  0
 13 15  1  0  0  0  0
 30 31  1  0  0  0  0
 31 32  2  0  0  0  0
 32 27  1  0  0  0  0
M  CHG  2   7   1   9  -1
M  END
> <Value>
4.665546248849069

> <Relation>
=

> <SourceURI>
mol:CHEMBL1819329

$$$$

Generated by Molecular Materials Informatics

 32 33  0  0  0  0  0  0  0  0999 V2000
   -6.9557    1.6052    0.0000 C   0  0  0  0  0  0  0  0  0  0  0  0
   -6.9578    0.1008    0.0000 C   0  0  0  0  0  0  0  0  0  0  0  0
   -5.6582   -0.6499    0.0000 C   0  0  0  0  0  0  0  0  0  0  0  0
   -4.3555    0.1017    0.0000 C   0  0  0  0  0  0  0  0  0  0  0  0
   -4.3607    1.6117    0.0000 C   0  0  0  0  0  0  0  0  0  0  0  0
   -5.6615    2.3556    0.0000 C   0  0  0  0  0  0  0  0  0  0  0  0
   -8.2562    2.3545    0.0000 N   0  3  0  0  0  0  0  0  0  0  0  0
   -9.5551    1.6041    0.0000 O   0  0  0  0  0  0  0  0  0  0  0  0
   -8.2566    3.8545    0.0000 O   0  5  0  0  0  0  0  0  0  0  0  0
   -3.0553   -0.6463    0.0000 C   0  0  0  0  0  0  0  0  0  0  0  0
   -3.0529   -2.1463    0.0000 O   0  0  0  0  0  0  0  0  0  0  0  0
   -1.7575    0.1057    0.0000 C   0  0  0  0  0  0  0  0  0  0  0  0
   -0.4573   -0.6423    0.0000 C   0  0  0  0  0  0  0  0  0  0  0  0
   -1.7598    1.6057    0.0000 N   0  0  0  0  0  0  0  0  0  0  0  0
    0.8405    0.1099    0.0000 N   0  0  0  0  0  0  0  0  0  0  0  0
    2.1409   -0.6381    0.0000 C   0  0  0  0  0  0  0  0  0  0  0  0
    2.1432   -2.1381    0.0000 O   0  0  0  0  0  0  0  0  0  0  0  0
    3.4387    0.1139    0.0000 C   0  0  0  0  0  0  0  0  0  0  0  0
    4.7389   -0.6341    0.0000 O   0  0  0  0  0  0  0  0  0  0  0  0
    3.4363    1.6139    0.0000 C   0  0  0  0  0  0  0  0  0  0  0  0
    4.7341    2.3659    0.0000 N   0  0  0  0  0  0  0  0  0  0  0  0
    6.0343    1.6179    0.0000 C   0  0  0  0  0  0  0  0  0  0  0  0
    7.3323    2.3701    0.0000 C   0  0  0  0  0  0  0  0  0  0  0  0
    6.0367    0.1179    0.0000 O   0  0  0  0  0  0  0  0  0  0  0  0
    8.6325    1.6221    0.0000 C   0  0  0  0  0  0  0  0  0  0  0  0
    7.3300    3.8701    0.0000 N   0  0  0  0  0  0  0  0  0  0  0  0
    8.6349    0.1221    0.0000 C   0  0  0  0  0  0  0  0  0  0  0  0
    7.3354   -0.6197    0.0000 C   0  0  0  0  0  0  0  0  0  0  0  0
    7.3371   -2.1183    0.0000 C   0  0  0  0  0  0  0  0  0  0  0  0
    8.6383   -2.8677    0.0000 C   0  0  0  0  0  0  0  0  0  0  0  0
    9.9405   -2.1077    0.0000 C   0  0  0  0  0  0  0  0  0  0  0  0
    9.9323   -0.6115    0.0000 C   0  0  0  0  0  0  0  0  0  0  0  0
 15 16  1  0  0  0  0
  7  8  2  0  0  0  0
 16 17  2  0  0  0  0
  7  9  1  0  0  0  0
 16 18  1  0  0  0  0
  1  7  1  0  0  0  0
 18 19  1  6  0  0  0
  4  5  1  0  0  0  0
 18 20  1  0  0  0  0
  4 10  1  0  0  0  0
 20 21  1  0  0  0  0
  2  3  1  0  0  0  0
 21 22  1  0  0  0  0
 10 11  1  1  0  0  0
 22 23  1  0  0  0  0
  5  6  2  0  0  0  0
 22 24  2  0  0  0  0
 10 12  1  0  0  0  0
 23 25  1  6  0  0  0
  6  1  1  0  0  0  0
 23 26  1  0  0  0  0
 12 13  1  0  0  0  0
 25 27  1  0  0  0  0
  1  2  2  0  0  0  0
 27 28  2  0  0  0  0
 12 14  1  1  0  0  0
 28 29  1  0  0  0  0
  3  4  2  0  0  0  0
 29 30  2  0  0  0  0
 13 15  1  0  0  0  0
 30 31  1  0  0  0  0
 31 32  2  0  0  0  0
 32 27  1  0  0  0  0
M  CHG  2   7   1   9  -1
M  END
> <Value>
4.7544873321858505

> <Relation>
=

> <SourceURI>
mol:CHEMBL1819330

$$$$

Generated by Molecular Materials Informatics

 23 23  0  0  0  0  0  0  0  0999 V2000
   23.6092   -6.3419    0.0000 N   0  0  0  0  0  0  0  0  0  0  0  0
   23.6152   -7.8388    0.0000 C   0  0  0  0  0  0  0  0  0  0  0  0
   24.9218   -8.5821    0.0000 C   0  0  0  0  0  0  0  0  0  0  0  0
   22.3281  -10.0819    0.0000 O   0  0  0  0  0  0  0  0  0  0  0  0
   22.3221   -8.5926    0.0000 C   0  0  0  0  0  0  0  0  0  0  0  0
   13.2256   -6.3496    0.0000 C   0  0  0  0  0  0  0  0  0  0  0  0
   13.2234   -7.8537    0.0000 C   0  0  0  0  0  0  0  0  0  0  0  0
   14.5232   -8.6045    0.0000 C   0  0  0  0  0  0  0  0  0  0  0  0
   15.8258   -7.8530    0.0000 C   0  0  0  0  0  0  0  0  0  0  0  0
   15.8205   -6.3428    0.0000 C   0  0  0  0  0  0  0  0  0  0  0  0
   14.5200   -5.5990    0.0000 C   0  0  0  0  0  0  0  0  0  0  0  0
   11.9250   -5.6003    0.0000 N   0  3  0  0  0  0  0  0  0  0  0  0
   10.6261   -6.3506    0.0000 O   0  0  0  0  0  0  0  0  0  0  0  0
   11.9247   -4.1003    0.0000 O   0  5  0  0  0  0  0  0  0  0  0  0
   17.1259   -8.6008    0.0000 C   0  0  0  0  0  0  0  0  0  0  0  0
   17.1283  -10.1008    0.0000 O   0  0  0  0  0  0  0  0  0  0  0  0
   18.4238   -7.8488    0.0000 C   0  0  0  0  0  0  0  0  0  0  0  0
   19.7241   -8.5968    0.0000 C   0  0  0  0  0  0  0  0  0  0  0  0
   18.4214   -6.3488    0.0000 N   0  0  0  0  0  0  0  0  0  0  0  0
   21.0219   -7.8448    0.0000 N   0  0  0  0  0  0  0  0  0  0  0  0
   26.2159   -7.8239    0.0000 C   0  0  0  0  0  0  0  0  0  0  0  0
   27.5198   -8.5655    0.0000 C   0  0  0  0  0  0  0  0  0  0  0  0
   26.2065   -6.3239    0.0000 C   0  0  0  0  0  0  0  0  0  0  0  0
  6  7  2  0  0  0  0
  4  5  2  0  0  0  0
 12 13  2  0  0  0  0
 12 14  1  0  0  0  0
  6 12  1  0  0  0  0
  7  8  1  0  0  0  0
  9 15  1  0  0  0  0
  5  2  1  0  0  0  0
 15 16  1  1  0  0  0
  8  9  2  0  0  0  0
 15 17  1  0  0  0  0
  2  1  1  0  0  0  0
 17 18  1  0  0  0  0
  9 10  1  0  0  0  0
 17 19  1  1  0  0  0
 18 20  1  0  0  0  0
 20  5  1  0  0  0  0
 10 11  2  0  0  0  0
  3 21  1  0  0  0  0
 11  6  1  0  0  0  0
 21 22  1  0  0  0  0
  2  3  1  1  0  0  0
 21 23  1  0  0  0  0
M  CHG  2  12   1  14  -1
M  END
> <Value>
4.09366495819491

> <Relation>
=

> <SourceURI>
mol:CHEMBL1819322

$$$$

Generated by Molecular Materials Informatics

 24 25  0  0  0  0  0  0  0  0999 V2000
   -8.1289  -14.6276    0.0000 C   0  0  0  0  0  0  0  0  0  0  0  0
   -8.1311  -16.1318    0.0000 C   0  0  0  0  0  0  0  0  0  0  0  0
   -6.8315  -16.8825    0.0000 C   0  0  0  0  0  0  0  0  0  0  0  0
   -5.5287  -16.1311    0.0000 C   0  0  0  0  0  0  0  0  0  0  0  0
   -5.5340  -14.6209    0.0000 C   0  0  0  0  0  0  0  0  0  0  0  0
   -6.8348  -13.8771    0.0000 C   0  0  0  0  0  0  0  0  0  0  0  0
   -4.2286  -16.8789    0.0000 C   0  0  0  0  0  0  0  0  0  0  0  0
   -4.2262  -18.3789    0.0000 O   0  0  0  0  0  0  0  0  0  0  0  0
   -2.9307  -16.1269    0.0000 C   0  0  0  0  0  0  0  0  0  0  0  0
   -1.6305  -16.8749    0.0000 C   0  0  0  0  0  0  0  0  0  0  0  0
   -2.9331  -14.6269    0.0000 N   0  0  0  0  0  0  0  0  0  0  0  0
   -0.3327  -16.1229    0.0000 N   0  0  0  0  0  0  0  0  0  0  0  0
    0.9677  -16.8707    0.0000 C   0  0  0  0  0  0  0  0  0  0  0  0
   -9.4282  -13.8778    0.0000 N   0  0  0  0  0  0  0  0  0  0  0  0
    2.2655  -16.1187    0.0000 C   0  0  0  0  0  0  0  0  0  0  0  0
    0.9700  -18.3707    0.0000 O   0  0  0  0  0  0  0  0  0  0  0  0
    3.5657  -16.8667    0.0000 C   0  0  0  0  0  0  0  0  0  0  0  0
    2.2631  -14.6187    0.0000 N   0  0  0  0  0  0  0  0  0  0  0  0
    4.8635  -16.1147    0.0000 C   0  0  0  0  0  0  0  0  0  0  0  0
    6.1622  -16.8647    0.0000 C   0  0  0  0  0  0  0  0  0  0  0  0
    7.4593  -16.1140    0.0000 C   0  0  0  0  0  0  0  0  0  0  0  0
    7.4577  -14.6123    0.0000 C   0  0  0  0  0  0  0  0  0  0  0  0
    6.1484  -13.8647    0.0000 C   0  0  0  0  0  0  0  0  0  0  0  0
    4.8568  -14.6198    0.0000 C   0  0  0  0  0  0  0  0  0  0  0  0
 10 12  1  0  0  0  0
  6  1  1  0  0  0  0
 12 13  1  0  0  0  0
  1  2  2  0  0  0  0
  1 14  1  0  0  0  0
  4  7  1  0  0  0  0
 13 15  1  0  0  0  0
  3  4  2  0  0  0  0
 13 16  2  0  0  0  0
  7  8  1  1  0  0  0
 15 17  1  6  0  0  0
 15 18  1  0  0  0  0
  7  9  1  0  0  0  0
 17 19  1  0  0  0  0
  4  5  1  0  0  0  0
 19 20  2  0  0  0  0
  9 10  1  0  0  0  0
 20 21  1  0  0  0  0
  2  3  1  0  0  0  0
 21 22  2  0  0  0  0
  9 11  1  1  0  0  0
 22 23  1  0  0  0  0
  5  6  2  0  0  0  0
 23 24  2  0  0  0  0
 24 19  1  0  0  0  0
M  END
> <Value>
3.8498578381514412

> <Relation>
=

> <SourceURI>
mol:CHEMBL1819336

$$$$

Generated by Molecular Materials Informatics

 25 26  0  0  0  0  0  0  0  0999 V2000
    4.2046  -14.9040    0.0000 C   0  0  0  0  0  0  0  0  0  0  0  0
    4.2025  -16.4082    0.0000 C   0  0  0  0  0  0  0  0  0  0  0  0
    5.5021  -17.1589    0.0000 C   0  0  0  0  0  0  0  0  0  0  0  0
    6.8048  -16.4075    0.0000 C   0  0  0  0  0  0  0  0  0  0  0  0
    6.7996  -14.8973    0.0000 C   0  0  0  0  0  0  0  0  0  0  0  0
    5.4988  -14.1535    0.0000 C   0  0  0  0  0  0  0  0  0  0  0  0
    8.1050  -17.1553    0.0000 C   0  0  0  0  0  0  0  0  0  0  0  0
    8.1074  -18.6553    0.0000 O   0  0  0  0  0  0  0  0  0  0  0  0
    9.4028  -16.4033    0.0000 C   0  0  0  0  0  0  0  0  0  0  0  0
   10.7030  -17.1513    0.0000 C   0  0  0  0  0  0  0  0  0  0  0  0
    9.4005  -14.9033    0.0000 N   0  0  0  0  0  0  0  0  0  0  0  0
   12.0008  -16.3993    0.0000 N   0  0  0  0  0  0  0  0  0  0  0  0
   13.3012  -17.1471    0.0000 C   0  0  0  0  0  0  0  0  0  0  0  0
    2.9054  -14.1542    0.0000 N   0  0  0  0  0  0  0  0  0  0  0  0
   13.3036  -18.6471    0.0000 O   0  0  0  0  0  0  0  0  0  0  0  0
   14.5990  -16.3951    0.0000 C   0  0  0  0  0  0  0  0  0  0  0  0
   15.8992  -17.1431    0.0000 C   0  0  0  0  0  0  0  0  0  0  0  0
   17.1970  -16.3911    0.0000 C   0  0  0  0  0  0  0  0  0  0  0  0
   14.5967  -14.8951    0.0000 N   0  0  0  0  0  0  0  0  0  0  0  0
   18.4958  -17.1411    0.0000 C   0  0  0  0  0  0  0  0  0  0  0  0
   19.7929  -16.3904    0.0000 C   0  0  0  0  0  0  0  0  0  0  0  0
   19.7912  -14.8887    0.0000 C   0  0  0  0  0  0  0  0  0  0  0  0
   18.4819  -14.1411    0.0000 C   0  0  0  0  0  0  0  0  0  0  0  0
   17.1903  -14.8962    0.0000 C   0  0  0  0  0  0  0  0  0  0  0  0
   21.0881  -14.1349    0.0000 O   0  0  0  0  0  0  0  0  0  0  0  0
  6  1  1  0  0  0  0
 12 13  1  0  0  0  0
  1  2  2  0  0  0  0
  1 14  1  0  0  0  0
  4  7  1  0  0  0  0
 13 15  2  0  0  0  0
  3  4  2  0  0  0  0
 13 16  1  0  0  0  0
  7  8  1  1  0  0  0
 16 17  1  1  0  0  0
 17 18  1  0  0  0  0
  7  9  1  0  0  0  0
 16 19  1  0  0  0  0
  4  5  1  0  0  0  0
 18 20  2  0  0  0  0
  9 10  1  0  0  0  0
 20 21  1  0  0  0  0
  2  3  1  0  0  0  0
 21 22  2  0  0  0  0
  9 11  1  1  0  0  0
 22 23  1  0  0  0  0
  5  6  2  0  0  0  0
 23 24  2  0  0  0  0
 24 18  1  0  0  0  0
 10 12  1  0  0  0  0
 22 25  1  0  0  0  0
M  END
> <Value>
3.9442395353122652

> <Relation>
=

> <SourceURI>
mol:CHEMBL1819442

$$$$

Generated by Molecular Materials Informatics

 14 15  0  0  0  0  0  0  0  0999 V2000
   15.5864  -13.0700    0.0000 C   0  0  0  0  0  0  0  0  0  0  0  0
   15.6391  -14.5690    0.0000 C   0  0  0  0  0  0  0  0  0  0  0  0
   16.8420  -15.4669    0.0000 C   0  0  0  0  0  0  0  0  0  0  0  0
   18.2950  -15.0766    0.0000 C   0  0  0  0  0  0  0  0  0  0  0  0
   18.8999  -13.7041    0.0000 C   0  0  0  0  0  0  0  0  0  0  0  0
   18.2001  -12.3773    0.0000 C   0  0  0  0  0  0  0  0  0  0  0  0
   16.7236  -12.0973    0.0000 C   0  0  0  0  0  0  0  0  0  0  0  0
   14.3723  -15.3638    0.0000 C   0  0  0  0  0  0  0  0  0  0  0  0
   13.0453  -14.6599    0.0000 C   0  0  0  0  0  0  0  0  0  0  0  0
   12.9927  -13.1612    0.0000 C   0  0  0  0  0  0  0  0  0  0  0  0
   14.2670  -12.3658    0.0000 C   0  0  0  0  0  0  0  0  0  0  0  0
   19.0906  -11.1746    0.0000 O   0  0  0  0  0  0  0  0  0  0  0  0
   19.2677  -16.2216    0.0000 O   0  0  0  0  0  0  0  0  0  0  0  0
   20.3987  -13.6514    0.0000 N   0  0  0  0  0  0  0  0  0  0  0  0
  1  2  1  0  0  0  0
  2  3  1  0  0  0  0
  3  4  1  0  0  0  0
  4  5  1  0  0  0  0
  5  6  1  0  0  0  0
  6  7  1  0  0  0  0
  1  7  1  0  0  0  0
  8  9  1  0  0  0  0
  9 10  2  0  0  0  0
 10 11  1  0  0  0  0
  1 11  2  0  0  0  0
  2  8  2  0  0  0  0
  6 12  2  0  0  0  0
  4 13  1  1  0  0  0
  5 14  1  1  0  0  0
M  END
> <Value>
3.0

> <Relation>
<

> <SourceURI>
mol:CHEMBL2443108

$$$$

Generated by Molecular Materials Informatics

 14 15  0  0  0  0  0  0  0  0999 V2000
   12.8812  -12.5895    0.0000 C   0  0  0  0  0  0  0  0  0  0  0  0
   12.8867  -14.0892    0.0000 C   0  0  0  0  0  0  0  0  0  0  0  0
   14.0683  -15.0248    0.0000 C   0  0  0  0  0  0  0  0  0  0  0  0
   15.5253  -14.6805    0.0000 C   0  0  0  0  0  0  0  0  0  0  0  0
   16.1731  -13.3274    0.0000 C   0  0  0  0  0  0  0  0  0  0  0  0
   15.5157  -11.9791    0.0000 C   0  0  0  0  0  0  0  0  0  0  0  0
   14.0563  -11.6530    0.0000 C   0  0  0  0  0  0  0  0  0  0  0  0
   11.5955  -14.8439    0.0000 C   0  0  0  0  0  0  0  0  0  0  0  0
   10.2911  -14.0985    0.0000 C   0  0  0  0  0  0  0  0  0  0  0  0
   10.2859  -12.5986    0.0000 C   0  0  0  0  0  0  0  0  0  0  0  0
   11.5845  -11.8440    0.0000 C   0  0  0  0  0  0  0  0  0  0  0  0
   16.4434  -10.8050    0.0000 O   0  0  0  0  0  0  0  0  0  0  0  0
   16.4616  -15.8555    0.0000 O   0  0  0  0  0  0  0  0  0  0  0  0
   17.6730  -13.3222    0.0000 N   0  0  0  0  0  0  0  0  0  0  0  0
  1  2  1  0  0  0  0
  2  3  1  0  0  0  0
  3  4  1  0  0  0  0
  4  5  1  0  0  0  0
  5  6  1  0  0  0  0
  6  7  1  0  0  0  0
  1  7  1  0  0  0  0
  8  9  1  0  0  0  0
  9 10  2  0  0  0  0
 10 11  1  0  0  0  0
  1 11  2  0  0  0  0
  2  8  2  0  0  0  0
  6 12  1  1  0  0  0
  4 13  1  1  0  0  0
  5 14  1  1  0  0  0
M  END
> <Value>
3.0

> <Relation>
<

> <SourceURI>
mol:CHEMBL2443107

$$$$

Generated by Molecular Materials Informatics

 14 15  0  0  0  0  0  0  0  0999 V2000
    8.7299  -11.6113    0.0000 C   0  0  0  0  0  0  0  0  0  0  0  0
    8.7299  -13.1111    0.0000 C   0  0  0  0  0  0  0  0  0  0  0  0
    9.9005  -14.0508    0.0000 C   0  0  0  0  0  0  0  0  0  0  0  0
   11.3659  -13.7117    0.0000 C   0  0  0  0  0  0  0  0  0  0  0  0
   12.0188  -12.3611    0.0000 C   0  0  0  0  0  0  0  0  0  0  0  0
   11.3659  -11.0108    0.0000 C   0  0  0  0  0  0  0  0  0  0  0  0
    9.9005  -10.6793    0.0000 C   0  0  0  0  0  0  0  0  0  0  0  0
    7.4361  -13.8610    0.0000 C   0  0  0  0  0  0  0  0  0  0  0  0
    6.1347  -13.1111    0.0000 C   0  0  0  0  0  0  0  0  0  0  0  0
    6.1347  -11.6113    0.0000 C   0  0  0  0  0  0  0  0  0  0  0  0
    7.4361  -10.8613    0.0000 C   0  0  0  0  0  0  0  0  0  0  0  0
   12.3057   -9.8401    0.0000 O   0  0  0  0  0  0  0  0  0  0  0  0
   13.5186  -12.3611    0.0000 O   0  0  0  0  0  0  0  0  0  0  0  0
   12.3057  -14.8900    0.0000 N   0  0  0  0  0  0  0  0  0  0  0  0
  1  2  1  0  0  0  0
  2  3  1  0  0  0  0
  3  4  1  0  0  0  0
  4  5  1  0  0  0  0
  5  6  1  0  0  0  0
  6  7  1  0  0  0  0
  1  7  1  0  0  0  0
  8  9  1  0  0  0  0
  9 10  2  0  0  0  0
 10 11  1  0  0  0  0
  1 11  2  0  0  0  0
  2  8  2  0  0  0  0
  6 12  2  0  0  0  0
  5 13  1  1  0  0  0
  4 14  1  1  0  0  0
M  END
> <Value>
3.0

> <Relation>
<

> <SourceURI>
mol:CHEMBL2443111

$$$$

Generated by Molecular Materials Informatics

 14 15  0  0  0  0  0  0  0  0999 V2000
    9.7454  -11.5914    0.0000 C   0  0  0  0  0  0  0  0  0  0  0  0
    9.7454  -10.0914    0.0000 C   0  0  0  0  0  0  0  0  0  0  0  0
   10.9238   -9.1594    0.0000 C   0  0  0  0  0  0  0  0  0  0  0  0
   12.3820   -9.4908    0.0000 C   0  0  0  0  0  0  0  0  0  0  0  0
   13.0347  -10.8414    0.0000 C   0  0  0  0  0  0  0  0  0  0  0  0
   12.3820  -12.1921    0.0000 C   0  0  0  0  0  0  0  0  0  0  0  0
   10.9238  -12.5312    0.0000 C   0  0  0  0  0  0  0  0  0  0  0  0
    8.4514   -9.3414    0.0000 C   0  0  0  0  0  0  0  0  0  0  0  0
    7.1498  -10.0914    0.0000 C   0  0  0  0  0  0  0  0  0  0  0  0
    7.1498  -11.5914    0.0000 C   0  0  0  0  0  0  0  0  0  0  0  0
    8.4514  -12.3414    0.0000 C   0  0  0  0  0  0  0  0  0  0  0  0
   14.5347  -10.8414    0.0000 O   0  0  0  0  0  0  0  0  0  0  0  0
   13.3141   -8.3199    0.0000 O   0  0  0  0  0  0  0  0  0  0  0  0
   13.3141  -13.3628    0.0000 N   0  0  0  0  0  0  0  0  0  0  0  0
  1  2  1  0  0  0  0
  2  3  1  0  0  0  0
  3  4  1  0  0  0  0
  4  5  1  0  0  0  0
  5  6  1  0  0  0  0
  6  7  1  0  0  0  0
  1  7  1  0  0  0  0
  8  9  1  0  0  0  0
  9 10  2  0  0  0  0
 10 11  1  0  0  0  0
  1 11  2  0  0  0  0
  2  8  2  0  0  0  0
  5 12  2  0  0  0  0
  4 13  1  1  0  0  0
  6 14  1  1  0  0  0
M  END
> <Value>
4.0

> <Relation>
<

> <SourceURI>
mol:CHEMBL2443109

$$$$

Generated by Molecular Materials Informatics

 24 25  0  0  0  0  0  0  0  0999 V2000
    6.1264    1.4408    0.0000 C   0  0  0  0  0  0  0  0  0  0  0  0
    6.1490   -0.0633    0.0000 C   0  0  0  0  0  0  0  0  0  0  0  0
    7.4606   -0.7928    0.0000 C   0  0  0  0  0  0  0  0  0  0  0  0
    8.7507   -0.0200    0.0000 C   0  0  0  0  0  0  0  0  0  0  0  0
    8.7209    1.4897    0.0000 C   0  0  0  0  0  0  0  0  0  0  0  0
    7.4082    2.2123    0.0000 C   0  0  0  0  0  0  0  0  0  0  0  0
   10.0047    2.2655    0.0000 C   0  0  0  0  0  0  0  0  0  0  0  0
   11.3185    1.5419    0.0000 N   0  0  0  0  0  0  0  0  0  0  0  0
    9.9745    3.7653    0.0000 O   0  0  0  0  0  0  0  0  0  0  0  0
   12.6021    2.3177    0.0000 C   0  0  0  0  0  0  0  0  0  0  0  0
   13.9208    1.5850    0.0000 C   0  0  0  0  0  0  0  0  0  0  0  0
   15.2006    2.3545    0.0000 N   0  0  0  0  0  0  0  0  0  0  0  0
   15.1782    3.8550    0.0000 C   0  0  0  0  0  0  0  0  0  0  0  0
   13.8646    4.5828    0.0000 C   0  0  0  0  0  0  0  0  0  0  0  0
   12.5734    3.8101    0.0000 C   0  0  0  0  0  0  0  0  0  0  0  0
   13.9463    0.0852    0.0000 O   0  0  0  0  0  0  0  0  0  0  0  0
   16.4649    4.6260    0.0000 O   0  0  0  0  0  0  0  0  0  0  0  0
   16.5117    1.6257    0.0000 C   0  0  0  0  0  0  0  0  0  0  0  0
   17.7984    2.3968    0.0000 C   0  0  0  0  0  0  0  0  0  0  0  0
   17.7738    3.8966    0.0000 O   0  0  0  0  0  0  0  0  0  0  0  0
    7.4847   -2.2925    0.0000 O   0  0  0  0  0  0  0  0  0  0  0  0
    4.8617   -0.8333    0.0000 O   0  0  0  0  0  0  0  0  0  0  0  0
    4.8152    2.1692    0.0000 O   0  0  0  0  0  0  0  0  0  0  0  0
   19.1094    1.6681    0.0000 O   0  0  0  0  0  0  0  0  0  0  0  0
  6  1  1  0  0  0  0
  1  2  2  0  0  0  0
  5  7  1  0  0  0  0
 10 15  1  0  0  0  0
 11 12  1  0  0  0  0
 12 13  1  0  0  0  0
 13 14  1  0  0  0  0
 14 15  1  0  0  0  0
  3  4  2  0  0  0  0
 11 16  2  0  0  0  0
  7  8  1  0  0  0  0
 13 17  2  0  0  0  0
 12 18  1  0  0  0  0
  7  9  2  0  0  0  0
 18 19  1  0  0  0  0
  4  5  1  0  0  0  0
 19 20  2  0  0  0  0
 10  8  1  1  0  0  0
  3 21  1  0  0  0  0
 10 11  1  0  0  0  0
  2 22  1  0  0  0  0
  2  3  1  0  0  0  0
  1 23  1  0  0  0  0
  5  6  2  0  0  0  0
 19 24  1  0  0  0  0
M  END
> <Value>
4.325138859262188

> <Relation>
=

> <SourceURI>
mol:CHEMBL575672

$$$$

Generated by Molecular Materials Informatics

 42 43  0  0  0  0  0  0  0  0999 V2000
   -6.4515  -27.4794    0.0000 C   0  0  0  0  0  0  0  0  0  0  0  0
   -6.4291  -28.9835    0.0000 C   0  0  0  0  0  0  0  0  0  0  0  0
   -5.1173  -29.7130    0.0000 C   0  0  0  0  0  0  0  0  0  0  0  0
   -3.8271  -28.9403    0.0000 C   0  0  0  0  0  0  0  0  0  0  0  0
   -3.8570  -27.4304    0.0000 C   0  0  0  0  0  0  0  0  0  0  0  0
   -5.1697  -26.7079    0.0000 C   0  0  0  0  0  0  0  0  0  0  0  0
   -2.5733  -26.6546    0.0000 C   0  0  0  0  0  0  0  0  0  0  0  0
   -1.2595  -27.3783    0.0000 N   0  0  0  0  0  0  0  0  0  0  0  0
   -2.6033  -25.1548    0.0000 O   0  0  0  0  0  0  0  0  0  0  0  0
    0.0243  -26.6024    0.0000 C   0  0  0  0  0  0  0  0  0  0  0  0
    1.3428  -27.3352    0.0000 C   0  0  0  0  0  0  0  0  0  0  0  0
    2.6228  -26.5657    0.0000 N   0  0  0  0  0  0  0  0  0  0  0  0
    2.6004  -25.0652    0.0000 C   0  0  0  0  0  0  0  0  0  0  0  0
    1.2868  -24.3374    0.0000 C   0  0  0  0  0  0  0  0  0  0  0  0
   -0.0044  -25.1101    0.0000 C   0  0  0  0  0  0  0  0  0  0  0  0
    1.3685  -28.8350    0.0000 O   0  0  0  0  0  0  0  0  0  0  0  0
    3.8870  -24.2941    0.0000 O   0  0  0  0  0  0  0  0  0  0  0  0
    3.9339  -27.2944    0.0000 C   0  0  0  0  0  0  0  0  0  0  0  0
    5.2204  -26.5234    0.0000 C   0  0  0  0  0  0  0  0  0  0  0  0
    5.1961  -25.0235    0.0000 O   0  0  0  0  0  0  0  0  0  0  0  0
   -5.0933  -31.2128    0.0000 O   0  0  0  0  0  0  0  0  0  0  0  0
   -6.3800  -31.9835    0.0000 C   0  0  0  0  0  0  0  0  0  0  0  0
   -7.7164  -29.7535    0.0000 O   0  0  0  0  0  0  0  0  0  0  0  0
   -9.0268  -29.0239    0.0000 C   0  0  0  0  0  0  0  0  0  0  0  0
   -7.7628  -26.7510    0.0000 O   0  0  0  0  0  0  0  0  0  0  0  0
   -7.7877  -25.2512    0.0000 C   0  0  0  0  0  0  0  0  0  0  0  0
    6.5315  -27.2521    0.0000 N   0  0  0  0  0  0  0  0  0  0  0  0
    7.8182  -26.4810    0.0000 C   0  0  0  0  0  0  0  0  0  0  0  0
    7.7939  -24.9812    0.0000 C   0  0  0  0  0  0  0  0  0  0  0  0
    9.1293  -27.2097    0.0000 C   0  0  0  0  0  0  0  0  0  0  0  0
    9.0804  -24.2101    0.0000 C   0  0  0  0  0  0  0  0  0  0  0  0
    9.0560  -22.7103    0.0000 C   0  0  0  0  0  0  0  0  0  0  0  0
   10.3426  -21.9392    0.0000 N   0  0  0  0  0  0  0  0  0  0  0  0
   10.3182  -20.4394    0.0000 C   0  0  0  0  0  0  0  0  0  0  0  0
   11.6048  -19.6683    0.0000 N   0  0  0  0  0  0  0  0  0  0  0  0
    9.0071  -19.7107    0.0000 N   0  0  0  0  0  0  0  0  0  0  0  0
    9.1537  -28.7095    0.0000 O   0  0  0  0  0  0  0  0  0  0  0  0
   10.4160  -26.4386    0.0000 O   0  0  0  0  0  0  0  0  0  0  0  0
   10.4648  -29.4382    0.0000 C   0  0  0  0  0  0  0  0  0  0  0  0
    8.9826  -18.2109    0.0000 N   0  3  0  0  0  0  0  0  0  0  0  0
    7.6662  -17.4758    0.0000 O   0  0  0  0  0  0  0  0  0  0  0  0
   10.2640  -17.4336    0.0000 O   0  5  0  0  0  0  0  0  0  0  0  0
 10  8  1  1  0  0  0
  3 21  1  0  0  0  0
 10 11  1  0  0  0  0
 21 22  1  0  0  0  0
  2  3  1  0  0  0  0
  2 23  1  0  0  0  0
  5  6  2  0  0  0  0
 23 24  1  0  0  0  0
  6  1  1  0  0  0  0
  1 25  1  0  0  0  0
  1  2  2  0  0  0  0
 25 26  1  0  0  0  0
  5  7  1  0  0  0  0
 19 27  1  0  0  0  0
 10 15  1  0  0  0  0
 27 28  1  0  0  0  0
 11 12  1  0  0  0  0
 28 29  1  0  0  0  0
 12 13  1  0  0  0  0
 28 30  1  0  0  0  0
 13 14  1  0  0  0  0
 29 31  1  0  0  0  0
 14 15  1  0  0  0  0
 31 32  1  0  0  0  0
  3  4  2  0  0  0  0
 32 33  1  0  0  0  0
 11 16  2  0  0  0  0
 33 34  1  0  0  0  0
  7  8  1  0  0  0  0
 34 35  2  0  0  0  0
 13 17  2  0  0  0  0
 34 36  1  0  0  0  0
 30 37  1  0  0  0  0
 12 18  1  0  0  0  0
 30 38  2  0  0  0  0
  7  9  2  0  0  0  0
 37 39  1  0  0  0  0
 18 19  1  0  0  0  0
 36 40  1  0  0  0  0
  4  5  1  0  0  0  0
 19 20  2  0  0  0  0
 40 41  2  0  0  0  0
 40 42  1  0  0  0  0
M  CHG  2  40   1  42  -1
M  END
> <Value>
4.376750709602099

> <Relation>
=

> <SourceURI>
mol:CHEMBL572735

$$$$

Generated by Molecular Materials Informatics

 47 49  0  0  0  0  0  0  0  0999 V2000
    5.5856   -3.0776    0.0000 C   0  0  0  0  0  0  0  0  0  0  0  0
    5.6045   -4.5831    0.0000 C   0  0  0  0  0  0  0  0  0  0  0  0
    6.9171   -5.3092    0.0000 C   0  0  0  0  0  0  0  0  0  0  0  0
    8.2048   -4.5326    0.0000 C   0  0  0  0  0  0  0  0  0  0  0  0
    8.1746   -3.0261    0.0000 C   0  0  0  0  0  0  0  0  0  0  0  0
    6.8607   -2.3030    0.0000 C   0  0  0  0  0  0  0  0  0  0  0  0
    9.4600   -2.2524    0.0000 C   0  0  0  0  0  0  0  0  0  0  0  0
    9.4295   -0.7536    0.0000 O   0  0  0  0  0  0  0  0  0  0  0  0
   12.0545   -2.2002    0.0000 C   0  0  0  0  0  0  0  0  0  0  0  0
   13.3777   -2.9314    0.0000 C   0  0  0  0  0  0  0  0  0  0  0  0
   14.6574   -2.1673    0.0000 N   0  0  0  0  0  0  0  0  0  0  0  0
   14.6311   -0.6672    0.0000 C   0  0  0  0  0  0  0  0  0  0  0  0
   13.3155    0.0639    0.0000 C   0  0  0  0  0  0  0  0  0  0  0  0
   12.0264   -0.7127    0.0000 C   0  0  0  0  0  0  0  0  0  0  0  0
   13.4014   -4.4304    0.0000 O   0  0  0  0  0  0  0  0  0  0  0  0
   15.9210    0.1068    0.0000 O   0  0  0  0  0  0  0  0  0  0  0  0
   15.9615   -2.8925    0.0000 C   0  0  0  0  0  0  0  0  0  0  0  0
   17.2514   -2.1261    0.0000 C   0  0  0  0  0  0  0  0  0  0  0  0
   17.2220   -0.6269    0.0000 O   0  0  0  0  0  0  0  0  0  0  0  0
    6.9384   -6.8082    0.0000 O   0  0  0  0  0  0  0  0  0  0  0  0
    5.6559   -7.5819    0.0000 C   0  0  0  0  0  0  0  0  0  0  0  0
    4.3215   -5.3481    0.0000 O   0  0  0  0  0  0  0  0  0  0  0  0
    3.0105   -4.6215    0.0000 C   0  0  0  0  0  0  0  0  0  0  0  0
    4.2737   -2.3454    0.0000 O   0  0  0  0  0  0  0  0  0  0  0  0
    4.2436   -0.8465    0.0000 C   0  0  0  0  0  0  0  0  0  0  0  0
   19.8543   -2.0790    0.0000 C   0  0  0  0  0  0  0  0  0  0  0  0
   21.1663   -2.8039    0.0000 C   0  0  0  0  0  0  0  0  0  0  0  0
   19.8325   -0.5798    0.0000 C   0  0  0  0  0  0  0  0  0  0  0  0
   21.1148    0.1943    0.0000 C   0  0  0  0  0  0  0  0  0  0  0  0
   21.0930    1.6931    0.0000 C   0  0  0  0  0  0  0  0  0  0  0  0
   22.3827    2.4672    0.0000 C   0  0  0  0  0  0  0  0  0  0  0  0
   21.1879   -4.3029    0.0000 O   0  0  0  0  0  0  0  0  0  0  0  0
   22.4560   -2.0375    0.0000 O   0  0  0  0  0  0  0  0  0  0  0  0
   22.4998   -5.0355    0.0000 C   0  0  0  0  0  0  0  0  0  0  0  0
   23.6428    4.7335    0.0000 C   0  0  0  0  0  0  0  0  0  0  0  0
   23.6133    6.2469    0.0000 O   0  0  0  0  0  0  0  0  0  0  0  0
   24.9543    4.0084    0.0000 O   0  0  0  0  0  0  0  0  0  0  0  0
   24.9032    7.0176    0.0000 C   0  0  0  0  0  0  0  0  0  0  0  0
   24.8812    8.5174    0.0000 C   0  0  0  0  0  0  0  0  0  0  0  0
   26.1722    9.2823    0.0000 C   0  0  0  0  0  0  0  0  0  0  0  0
   26.1439   10.7690    0.0000 C   0  0  0  0  0  0  0  0  0  0  0  0
   24.8307   11.4956    0.0000 C   0  0  0  0  0  0  0  0  0  0  0  0
   23.5420   10.7295    0.0000 C   0  0  0  0  0  0  0  0  0  0  0  0
   23.5726    9.2240    0.0000 C   0  0  0  0  0  0  0  0  0  0  0  0
   10.7725   -2.9788    0.0000 N   0  0  0  0  0  0  0  0  0  0  0  0
   18.5664   -2.8479    0.0000 N   0  0  0  0  0  0  0  0  0  0  0  0
   22.3532    3.9671    0.0000 N   0  0  0  0  0  0  0  0  0  0  0  0
  3  4  2  0  0  0  0
  4  5  1  0  0  0  0
  5  6  2  0  0  0  0
  6  1  1  0  0  0  0
  5  7  1  0  0  0  0
  7  8  2  0  0  0  0
  9 10  1  0  0  0  0
  9 14  1  0  0  0  0
 10 11  1  0  0  0  0
 11 12  1  0  0  0  0
 12 13  1  0  0  0  0
 13 14  1  0  0  0  0
 10 15  2  0  0  0  0
 12 16  2  0  0  0  0
 11 17  1  0  0  0  0
 17 18  1  0  0  0  0
 18 19  2  0  0  0  0
  3 20  1  0  0  0  0
 20 21  1  0  0  0  0
  2 22  1  0  0  0  0
 22 23  1  0  0  0  0
  1 24  1  0  0  0  0
 24 25  1  0  0  0  0
 26 27  1  0  0  0  0
 26 28  1  1  0  0  0
 28 29  1  0  0  0  0
 29 30  1  0  0  0  0
 30 31  1  0  0  0  0
 27 32  1  0  0  0  0
 27 33  2  0  0  0  0
 32 34  1  0  0  0  0
 35 36  1  0  0  0  0
 35 37  2  0  0  0  0
 36 38  1  0  0  0  0
 38 39  1  0  0  0  0
 39 40  2  0  0  0  0
 40 41  1  0  0  0  0
 41 42  2  0  0  0  0
 42 43  1  0  0  0  0
 43 44  2  0  0  0  0
 44 39  1  0  0  0  0
  1  2  2  0  0  0  0
  2  3  1  0  0  0  0
 18 46  1  0  0  0  0
 46 26  1  0  0  0  0
  7 45  1  0  0  0  0
  9 45  1  1  0  0  0
 31 47  1  0  0  0  0
 47 35  1  0  0  0  0
M  END
> <Value>
4.419075024324381

> <Relation>
=

> <SourceURI>
mol:CHEMBL572501

$$$$

Generated by Molecular Materials Informatics

 34 35  0  0  0  0  0  0  0  0999 V2000
   -7.1839    1.0703    0.0000 C   0  0  0  0  0  0  0  0  0  0  0  0
   -7.1705   -0.4315    0.0000 C   0  0  0  0  0  0  0  0  0  0  0  0
   -5.8553   -1.1609    0.0000 C   0  0  0  0  0  0  0  0  0  0  0  0
   -4.5701   -0.3853    0.0000 C   0  0  0  0  0  0  0  0  0  0  0  0
   -4.6005    1.1180    0.0000 C   0  0  0  0  0  0  0  0  0  0  0  0
   -5.9106    1.8507    0.0000 C   0  0  0  0  0  0  0  0  0  0  0  0
   -3.3113    1.8969    0.0000 C   0  0  0  0  0  0  0  0  0  0  0  0
   -3.3424    3.3964    0.0000 O   0  0  0  0  0  0  0  0  0  0  0  0
   -0.7167    1.9465    0.0000 C   0  0  0  0  0  0  0  0  0  0  0  0
    0.6069    1.2170    0.0000 C   0  0  0  0  0  0  0  0  0  0  0  0
    1.8799    1.9813    0.0000 N   0  0  0  0  0  0  0  0  0  0  0  0
    1.8551    3.4824    0.0000 C   0  0  0  0  0  0  0  0  0  0  0  0
    0.5430    4.2116    0.0000 C   0  0  0  0  0  0  0  0  0  0  0  0
   -0.7520    3.4364    0.0000 C   0  0  0  0  0  0  0  0  0  0  0  0
    0.6274   -0.2825    0.0000 O   0  0  0  0  0  0  0  0  0  0  0  0
    3.1436    4.2538    0.0000 O   0  0  0  0  0  0  0  0  0  0  0  0
    3.1900    1.2534    0.0000 C   0  0  0  0  0  0  0  0  0  0  0  0
    4.4783    2.0213    0.0000 C   0  0  0  0  0  0  0  0  0  0  0  0
    4.4488    3.5210    0.0000 O   0  0  0  0  0  0  0  0  0  0  0  0
   -5.8380   -2.6601    0.0000 O   0  0  0  0  0  0  0  0  0  0  0  0
   -7.1154   -3.4313    0.0000 C   0  0  0  0  0  0  0  0  0  0  0  0
   -8.4489   -1.1969    0.0000 O   0  0  0  0  0  0  0  0  0  0  0  0
   -9.7616   -0.4745    0.0000 C   0  0  0  0  0  0  0  0  0  0  0  0
   -8.4984    1.8012    0.0000 O   0  0  0  0  0  0  0  0  0  0  0  0
   -8.5288    3.3009    0.0000 C   0  0  0  0  0  0  0  0  0  0  0  0
    5.7924    1.2934    0.0000 N   0  0  0  0  0  0  0  0  0  0  0  0
    7.0770    2.0612    0.0000 C   0  0  0  0  0  0  0  0  0  0  0  0
    8.3803    1.3336    0.0000 C   0  0  0  0  0  0  0  0  0  0  0  0
    7.0501    3.5610    0.0000 C   0  0  0  0  0  0  0  0  0  0  0  0
    8.4070   -0.1659    0.0000 O   0  0  0  0  0  0  0  0  0  0  0  0
    9.6720    2.1057    0.0000 O   0  0  0  0  0  0  0  0  0  0  0  0
    9.7182   -0.8935    0.0000 C   0  0  0  0  0  0  0  0  0  0  0  0
    8.3353    4.3341    0.0000 S   0  0  0  0  0  0  0  0  0  0  0  0
   -1.9995    1.1675    0.0000 N   0  0  0  0  0  0  0  0  0  0  0  0
  2  3  1  0  0  0  0
  3  4  2  0  0  0  0
  4  5  1  0  0  0  0
  5  6  2  0  0  0  0
  6  1  1  0  0  0  0
  5  7  1  0  0  0  0
  7  8  2  0  0  0  0
  9 10  1  0  0  0  0
  9 14  1  0  0  0  0
 10 11  1  0  0  0  0
 11 12  1  0  0  0  0
 12 13  1  0  0  0  0
 13 14  1  0  0  0  0
 10 15  2  0  0  0  0
 12 16  2  0  0  0  0
 11 17  1  0  0  0  0
 17 18  1  0  0  0  0
 18 19  2  0  0  0  0
  3 20  1  0  0  0  0
 20 21  1  0  0  0  0
  2 22  1  0  0  0  0
 22 23  1  0  0  0  0
  1 24  1  0  0  0  0
 24 25  1  0  0  0  0
 18 26  1  0  0  0  0
 27 26  1  0  0  0  0
 27 28  1  0  0  0  0
 27 29  1  6  0  0  0
 28 30  1  0  0  0  0
 28 31  2  0  0  0  0
 30 32  1  0  0  0  0
 29 33  1  0  0  0  0
  1  2  2  0  0  0  0
  7 34  1  0  0  0  0
  9 34  1  1  0  0  0
M  END
> <Value>
4.298432014944073

> <Relation>
=

> <SourceURI>
mol:CHEMBL575028

$$$$

Generated by Molecular Materials Informatics

 34 35  0  0  0  0  0  0  0  0999 V2000
    5.1664    0.6289    0.0000 C   0  0  0  0  0  0  0  0  0  0  0  0
    5.1799   -0.8730    0.0000 C   0  0  0  0  0  0  0  0  0  0  0  0
    6.4952   -1.6021    0.0000 C   0  0  0  0  0  0  0  0  0  0  0  0
    7.7804   -0.8267    0.0000 C   0  0  0  0  0  0  0  0  0  0  0  0
    7.7500    0.6766    0.0000 C   0  0  0  0  0  0  0  0  0  0  0  0
    6.4399    1.4094    0.0000 C   0  0  0  0  0  0  0  0  0  0  0  0
    9.0394    1.4558    0.0000 C   0  0  0  0  0  0  0  0  0  0  0  0
    9.0084    2.9549    0.0000 O   0  0  0  0  0  0  0  0  0  0  0  0
   11.6339    1.5053    0.0000 C   0  0  0  0  0  0  0  0  0  0  0  0
   12.9578    0.7757    0.0000 C   0  0  0  0  0  0  0  0  0  0  0  0
   14.2308    1.5398    0.0000 N   0  0  0  0  0  0  0  0  0  0  0  0
   14.2061    3.0410    0.0000 C   0  0  0  0  0  0  0  0  0  0  0  0
   12.8938    3.7705    0.0000 C   0  0  0  0  0  0  0  0  0  0  0  0
   11.5986    2.9951    0.0000 C   0  0  0  0  0  0  0  0  0  0  0  0
   12.9782   -0.7238    0.0000 O   0  0  0  0  0  0  0  0  0  0  0  0
   15.4945    3.8129    0.0000 O   0  0  0  0  0  0  0  0  0  0  0  0
   15.5409    0.8121    0.0000 C   0  0  0  0  0  0  0  0  0  0  0  0
   16.8294    1.5799    0.0000 C   0  0  0  0  0  0  0  0  0  0  0  0
   16.7999    3.0795    0.0000 O   0  0  0  0  0  0  0  0  0  0  0  0
    6.5125   -3.1018    0.0000 O   0  0  0  0  0  0  0  0  0  0  0  0
    5.2352   -3.8728    0.0000 C   0  0  0  0  0  0  0  0  0  0  0  0
    3.9014   -1.6385    0.0000 O   0  0  0  0  0  0  0  0  0  0  0  0
    2.5886   -0.9159    0.0000 C   0  0  0  0  0  0  0  0  0  0  0  0
    3.8519    1.3599    0.0000 O   0  0  0  0  0  0  0  0  0  0  0  0
    3.8215    2.8596    0.0000 C   0  0  0  0  0  0  0  0  0  0  0  0
   18.1435    0.8523    0.0000 N   0  0  0  0  0  0  0  0  0  0  0  0
   19.4279    1.6201    0.0000 C   0  0  0  0  0  0  0  0  0  0  0  0
   20.7315    0.8925    0.0000 C   0  0  0  0  0  0  0  0  0  0  0  0
   19.4012    3.1197    0.0000 C   0  0  0  0  0  0  0  0  0  0  0  0
   20.7582   -0.6073    0.0000 O   0  0  0  0  0  0  0  0  0  0  0  0
   22.0232    1.6645    0.0000 O   0  0  0  0  0  0  0  0  0  0  0  0
   22.0692   -1.3351    0.0000 C   0  0  0  0  0  0  0  0  0  0  0  0
   20.6865    3.8929    0.0000 Cl  0  0  0  0  0  0  0  0  0  0  0  0
   10.3509    0.7260    0.0000 N   0  0  0  0  0  0  0  0  0  0  0  0
  2  3  1  0  0  0  0
  3  4  2  0  0  0  0
  4  5  1  0  0  0  0
  5  6  2  0  0  0  0
  6  1  1  0  0  0  0
  5  7  1  0  0  0  0
  7  8  2  0  0  0  0
  9 10  1  0  0  0  0
  9 14  1  0  0  0  0
 10 11  1  0  0  0  0
 11 12  1  0  0  0  0
 12 13  1  0  0  0  0
 13 14  1  0  0  0  0
 10 15  2  0  0  0  0
 12 16  2  0  0  0  0
 11 17  1  0  0  0  0
 17 18  1  0  0  0  0
 18 19  2  0  0  0  0
  3 20  1  0  0  0  0
 20 21  1  0  0  0  0
  2 22  1  0  0  0  0
 22 23  1  0  0  0  0
  1 24  1  0  0  0  0
 24 25  1  0  0  0  0
 18 26  1  0  0  0  0
 27 26  1  0  0  0  0
 27 28  1  0  0  0  0
 27 29  1  6  0  0  0
 28 30  1  0  0  0  0
 28 31  2  0  0  0  0
 30 32  1  0  0  0  0
 29 33  1  0  0  0  0
  1  2  2  0  0  0  0
  7 34  1  0  0  0  0
  9 34  1  1  0  0  0
M  END
> <Value>
4.301029995663981

> <Relation>
=

> <SourceURI>
mol:CHEMBL575671

$$$$

Generated by Molecular Materials Informatics

 37 38  0  0  0  0  0  0  0  0999 V2000
   -7.2468   -6.7953    0.0000 C   0  0  0  0  0  0  0  0  0  0  0  0
   -7.2334   -8.2973    0.0000 C   0  0  0  0  0  0  0  0  0  0  0  0
   -5.9180   -9.0265    0.0000 C   0  0  0  0  0  0  0  0  0  0  0  0
   -4.6328   -8.2511    0.0000 C   0  0  0  0  0  0  0  0  0  0  0  0
   -4.6632   -6.7476    0.0000 C   0  0  0  0  0  0  0  0  0  0  0  0
   -5.9733   -6.0150    0.0000 C   0  0  0  0  0  0  0  0  0  0  0  0
   -3.3739   -5.9686    0.0000 C   0  0  0  0  0  0  0  0  0  0  0  0
   -3.4050   -4.4693    0.0000 O   0  0  0  0  0  0  0  0  0  0  0  0
   -0.7792   -5.9191    0.0000 C   0  0  0  0  0  0  0  0  0  0  0  0
    0.5444   -6.6486    0.0000 C   0  0  0  0  0  0  0  0  0  0  0  0
    1.8175   -5.8845    0.0000 N   0  0  0  0  0  0  0  0  0  0  0  0
    1.7928   -4.3834    0.0000 C   0  0  0  0  0  0  0  0  0  0  0  0
    0.4807   -3.6537    0.0000 C   0  0  0  0  0  0  0  0  0  0  0  0
   -0.8145   -4.4292    0.0000 C   0  0  0  0  0  0  0  0  0  0  0  0
    0.5649   -8.1481    0.0000 O   0  0  0  0  0  0  0  0  0  0  0  0
    3.0814   -3.6115    0.0000 O   0  0  0  0  0  0  0  0  0  0  0  0
    3.1278   -6.6120    0.0000 C   0  0  0  0  0  0  0  0  0  0  0  0
    4.4160   -5.8443    0.0000 C   0  0  0  0  0  0  0  0  0  0  0  0
    4.3868   -4.3448    0.0000 O   0  0  0  0  0  0  0  0  0  0  0  0
   -5.9007  -10.5261    0.0000 O   0  0  0  0  0  0  0  0  0  0  0  0
   -7.1782  -11.2971    0.0000 C   0  0  0  0  0  0  0  0  0  0  0  0
   -8.5118   -9.0627    0.0000 O   0  0  0  0  0  0  0  0  0  0  0  0
   -9.8246   -8.3400    0.0000 C   0  0  0  0  0  0  0  0  0  0  0  0
   -8.5613   -6.0643    0.0000 O   0  0  0  0  0  0  0  0  0  0  0  0
   -8.5917   -4.5648    0.0000 C   0  0  0  0  0  0  0  0  0  0  0  0
    5.7303   -6.5720    0.0000 N   0  0  0  0  0  0  0  0  0  0  0  0
    7.0149   -5.8043    0.0000 C   0  0  0  0  0  0  0  0  0  0  0  0
    8.3183   -6.5318    0.0000 C   0  0  0  0  0  0  0  0  0  0  0  0
    6.9880   -4.3044    0.0000 C   0  0  0  0  0  0  0  0  0  0  0  0
    8.3450   -8.0315    0.0000 O   0  0  0  0  0  0  0  0  0  0  0  0
    9.6100   -5.7597    0.0000 O   0  0  0  0  0  0  0  0  0  0  0  0
    9.6562   -8.7592    0.0000 C   0  0  0  0  0  0  0  0  0  0  0  0
    8.2733   -3.5312    0.0000 C   0  0  0  0  0  0  0  0  0  0  0  0
    8.2466   -2.0314    0.0000 O   0  0  0  0  0  0  0  0  0  0  0  0
    9.5856   -4.2579    0.0000 O   0  0  0  0  0  0  0  0  0  0  0  0
    9.5318   -1.2584    0.0000 C   0  0  0  0  0  0  0  0  0  0  0  0
   -2.0622   -6.6981    0.0000 N   0  0  0  0  0  0  0  0  0  0  0  0
  5  6  2  0  0  0  0
  6  1  1  0  0  0  0
  5  7  1  0  0  0  0
  7  8  2  0  0  0  0
  9 10  1  0  0  0  0
  9 14  1  0  0  0  0
 10 11  1  0  0  0  0
 11 12  1  0  0  0  0
 12 13  1  0  0  0  0
 13 14  1  0  0  0  0
 10 15  2  0  0  0  0
 12 16  2  0  0  0  0
 11 17  1  0  0  0  0
 17 18  1  0  0  0  0
 18 19  2  0  0  0  0
  3 20  1  0  0  0  0
 20 21  1  0  0  0  0
  2 22  1  0  0  0  0
 22 23  1  0  0  0  0
  1 24  1  0  0  0  0
 24 25  1  0  0  0  0
 18 26  1  0  0  0  0
 27 26  1  0  0  0  0
 27 28  1  0  0  0  0
 27 29  1  6  0  0  0
 28 30  1  0  0  0  0
 28 31  2  0  0  0  0
 30 32  1  0  0  0  0
 29 33  1  0  0  0  0
  1  2  2  0  0  0  0
 33 34  1  0  0  0  0
  2  3  1  0  0  0  0
 33 35  2  0  0  0  0
  3  4  2  0  0  0  0
 34 36  1  0  0  0  0
  4  5  1  0  0  0  0
  7 37  1  0  0  0  0
  9 37  1  1  0  0  0
M  END
> <Value>
4.663540266151471

> <Relation>
=

> <SourceURI>
mol:CHEMBL573033

$$$$

Generated by Molecular Materials Informatics

 25 26  0  0  0  0  0  0  0  0999 V2000
    4.9271  -12.6147    0.0000 C   0  0  0  0  0  0  0  0  0  0  0  0
    4.9406  -14.1155    0.0000 C   0  0  0  0  0  0  0  0  0  0  0  0
    6.2554  -14.8445    0.0000 C   0  0  0  0  0  0  0  0  0  0  0  0
    7.5396  -14.0695    0.0000 C   0  0  0  0  0  0  0  0  0  0  0  0
    7.5092  -12.5670    0.0000 C   0  0  0  0  0  0  0  0  0  0  0  0
    6.2001  -11.8348    0.0000 C   0  0  0  0  0  0  0  0  0  0  0  0
    8.7978  -11.7884    0.0000 C   0  0  0  0  0  0  0  0  0  0  0  0
    8.7669  -10.2901    0.0000 O   0  0  0  0  0  0  0  0  0  0  0  0
   11.3916  -11.7389    0.0000 C   0  0  0  0  0  0  0  0  0  0  0  0
   12.7148  -12.4679    0.0000 C   0  0  0  0  0  0  0  0  0  0  0  0
   13.9870  -11.7042    0.0000 N   0  0  0  0  0  0  0  0  0  0  0  0
   13.9623  -10.2041    0.0000 C   0  0  0  0  0  0  0  0  0  0  0  0
   12.6508   -9.4751    0.0000 C   0  0  0  0  0  0  0  0  0  0  0  0
   11.3563  -10.2501    0.0000 C   0  0  0  0  0  0  0  0  0  0  0  0
   12.7352  -13.9666    0.0000 O   0  0  0  0  0  0  0  0  0  0  0  0
   15.2500   -9.4327    0.0000 O   0  0  0  0  0  0  0  0  0  0  0  0
   15.2964  -12.4317    0.0000 C   0  0  0  0  0  0  0  0  0  0  0  0
   16.5841  -11.6644    0.0000 C   0  0  0  0  0  0  0  0  0  0  0  0
   16.5546  -10.1655    0.0000 O   0  0  0  0  0  0  0  0  0  0  0  0
    6.2726  -16.3432    0.0000 O   0  0  0  0  0  0  0  0  0  0  0  0
    3.6630  -14.8809    0.0000 O   0  0  0  0  0  0  0  0  0  0  0  0
    3.6136  -11.8842    0.0000 O   0  0  0  0  0  0  0  0  0  0  0  0
   17.8947  -12.3919    0.0000 N   0  0  0  0  0  0  0  0  0  0  0  0
   19.1802  -11.6207    0.0000 O   0  0  0  0  0  0  0  0  0  0  0  0
   10.1092  -12.5177    0.0000 N   0  0  0  0  0  0  0  0  0  0  0  0
  3  4  2  0  0  0  0
  4  5  1  0  0  0  0
  5  6  2  0  0  0  0
  6  1  1  0  0  0  0
  5  7  1  0  0  0  0
  7  8  2  0  0  0  0
  9 10  1  0  0  0  0
  9 14  1  0  0  0  0
 10 11  1  0  0  0  0
 11 12  1  0  0  0  0
 12 13  1  0  0  0  0
 13 14  1  0  0  0  0
 10 15  2  0  0  0  0
 12 16  2  0  0  0  0
 11 17  1  0  0  0  0
 17 18  1  0  0  0  0
 18 19  2  0  0  0  0
  3 20  1  0  0  0  0
  2 21  1  0  0  0  0
  1 22  1  0  0  0  0
 18 23  1  0  0  0  0
  1  2  2  0  0  0  0
 23 24  1  0  0  0  0
  2  3  1  0  0  0  0
  7 25  1  0  0  0  0
  9 25  1  1  0  0  0
M  END
> <Value>
5.366531544420414

> <Relation>
=

> <SourceURI>
mol:CHEMBL575029

$$$$

Generated by Molecular Materials Informatics

 28 29  0  0  0  0  0  0  0  0999 V2000
   -7.8369  -19.4183    0.0000 C   0  0  0  0  0  0  0  0  0  0  0  0
   -7.8235  -20.9202    0.0000 C   0  0  0  0  0  0  0  0  0  0  0  0
   -6.5081  -21.6494    0.0000 C   0  0  0  0  0  0  0  0  0  0  0  0
   -5.2233  -20.8740    0.0000 C   0  0  0  0  0  0  0  0  0  0  0  0
   -5.2536  -19.3706    0.0000 C   0  0  0  0  0  0  0  0  0  0  0  0
   -6.5634  -18.6383    0.0000 C   0  0  0  0  0  0  0  0  0  0  0  0
   -3.9644  -18.5919    0.0000 C   0  0  0  0  0  0  0  0  0  0  0  0
   -3.9954  -17.0928    0.0000 O   0  0  0  0  0  0  0  0  0  0  0  0
   -1.3700  -18.5422    0.0000 C   0  0  0  0  0  0  0  0  0  0  0  0
   -0.0465  -19.2719    0.0000 C   0  0  0  0  0  0  0  0  0  0  0  0
    1.2265  -18.5077    0.0000 N   0  0  0  0  0  0  0  0  0  0  0  0
    1.2018  -17.0067    0.0000 C   0  0  0  0  0  0  0  0  0  0  0  0
   -0.1103  -16.2773    0.0000 C   0  0  0  0  0  0  0  0  0  0  0  0
   -1.4053  -17.0527    0.0000 C   0  0  0  0  0  0  0  0  0  0  0  0
   -0.0259  -20.7712    0.0000 O   0  0  0  0  0  0  0  0  0  0  0  0
    2.4901  -16.2351    0.0000 O   0  0  0  0  0  0  0  0  0  0  0  0
    2.5365  -19.2353    0.0000 C   0  0  0  0  0  0  0  0  0  0  0  0
    3.8248  -18.4675    0.0000 C   0  0  0  0  0  0  0  0  0  0  0  0
    3.7953  -16.9683    0.0000 O   0  0  0  0  0  0  0  0  0  0  0  0
   -6.4908  -23.1487    0.0000 O   0  0  0  0  0  0  0  0  0  0  0  0
   -9.1018  -21.6855    0.0000 O   0  0  0  0  0  0  0  0  0  0  0  0
   -9.1511  -18.6876    0.0000 O   0  0  0  0  0  0  0  0  0  0  0  0
    5.1362  -19.1957    0.0000 N   0  0  0  0  0  0  0  0  0  0  0  0
    6.4221  -18.4242    0.0000 C   0  0  0  0  0  0  0  0  0  0  0  0
    7.7335  -19.1522    0.0000 C   0  0  0  0  0  0  0  0  0  0  0  0
    9.0198  -18.3805    0.0000 O   0  0  0  0  0  0  0  0  0  0  0  0
    7.7586  -20.6517    0.0000 O   0  0  0  0  0  0  0  0  0  0  0  0
   -2.6529  -19.3212    0.0000 N   0  0  0  0  0  0  0  0  0  0  0  0
  6  1  1  0  0  0  0
  5  7  1  0  0  0  0
  7  8  2  0  0  0  0
  9 10  1  0  0  0  0
  9 14  1  0  0  0  0
 10 11  1  0  0  0  0
 11 12  1  0  0  0  0
 12 13  1  0  0  0  0
 13 14  1  0  0  0  0
 10 15  2  0  0  0  0
 12 16  2  0  0  0  0
 11 17  1  0  0  0  0
 17 18  1  0  0  0  0
 18 19  2  0  0  0  0
  3 20  1  0  0  0  0
  2 21  1  0  0  0  0
  1 22  1  0  0  0  0
 18 23  1  0  0  0  0
  1  2  2  0  0  0  0
 23 24  1  0  0  0  0
  2  3  1  0  0  0  0
 24 25  1  0  0  0  0
  3  4  2  0  0  0  0
 25 26  2  0  0  0  0
  4  5  1  0  0  0  0
 25 27  1  0  0  0  0
  5  6  2  0  0  0  0
  7 28  1  0  0  0  0
  9 28  1  1  0  0  0
M  END
> <Value>
4.199282921717615

> <Relation>
=

> <SourceURI>
mol:CHEMBL578660

$$$$

Generated by Molecular Materials Informatics

 32 33  0  0  0  0  0  0  0  0999 V2000
    4.0217  -19.3491    0.0000 C   0  0  0  0  0  0  0  0  0  0  0  0
    4.0349  -20.8510    0.0000 C   0  0  0  0  0  0  0  0  0  0  0  0
    5.3505  -21.5803    0.0000 C   0  0  0  0  0  0  0  0  0  0  0  0
    6.6356  -20.8048    0.0000 C   0  0  0  0  0  0  0  0  0  0  0  0
    6.6052  -19.3014    0.0000 C   0  0  0  0  0  0  0  0  0  0  0  0
    5.2951  -18.5689    0.0000 C   0  0  0  0  0  0  0  0  0  0  0  0
    7.8945  -18.5225    0.0000 C   0  0  0  0  0  0  0  0  0  0  0  0
    7.8634  -17.0233    0.0000 O   0  0  0  0  0  0  0  0  0  0  0  0
   10.4875  -18.4731    0.0000 C   0  0  0  0  0  0  0  0  0  0  0  0
   11.8110  -19.2027    0.0000 C   0  0  0  0  0  0  0  0  0  0  0  0
   13.0841  -18.4385    0.0000 N   0  0  0  0  0  0  0  0  0  0  0  0
   13.0594  -16.9375    0.0000 C   0  0  0  0  0  0  0  0  0  0  0  0
   11.7470  -16.2079    0.0000 C   0  0  0  0  0  0  0  0  0  0  0  0
   10.4520  -16.9835    0.0000 C   0  0  0  0  0  0  0  0  0  0  0  0
   11.8316  -20.7021    0.0000 O   0  0  0  0  0  0  0  0  0  0  0  0
   14.3477  -16.1657    0.0000 O   0  0  0  0  0  0  0  0  0  0  0  0
   14.3942  -19.1662    0.0000 C   0  0  0  0  0  0  0  0  0  0  0  0
   15.6826  -18.3984    0.0000 C   0  0  0  0  0  0  0  0  0  0  0  0
   15.6531  -16.8990    0.0000 O   0  0  0  0  0  0  0  0  0  0  0  0
    5.3676  -23.0798    0.0000 O   0  0  0  0  0  0  0  0  0  0  0  0
    2.7568  -21.6164    0.0000 O   0  0  0  0  0  0  0  0  0  0  0  0
    2.7072  -18.6182    0.0000 O   0  0  0  0  0  0  0  0  0  0  0  0
   16.9940  -19.1265    0.0000 N   0  0  0  0  0  0  0  0  0  0  0  0
   18.2803  -18.3549    0.0000 C   0  0  0  0  0  0  0  0  0  0  0  0
   19.5915  -19.0831    0.0000 C   0  0  0  0  0  0  0  0  0  0  0  0
   20.8778  -18.3113    0.0000 O   0  0  0  0  0  0  0  0  0  0  0  0
   19.6168  -20.5826    0.0000 O   0  0  0  0  0  0  0  0  0  0  0  0
   18.2550  -16.8551    0.0000 C   0  0  0  0  0  0  0  0  0  0  0  0
   19.5413  -16.0835    0.0000 C   0  0  0  0  0  0  0  0  0  0  0  0
   19.5162  -14.5838    0.0000 C   0  0  0  0  0  0  0  0  0  0  0  0
   20.8527  -16.8117    0.0000 C   0  0  0  0  0  0  0  0  0  0  0  0
    9.2053  -19.2516    0.0000 N   0  0  0  0  0  0  0  0  0  0  0  0
  9 10  1  0  0  0  0
  9 14  1  0  0  0  0
 10 11  1  0  0  0  0
 11 12  1  0  0  0  0
 12 13  1  0  0  0  0
 13 14  1  0  0  0  0
 10 15  2  0  0  0  0
 12 16  2  0  0  0  0
 11 17  1  0  0  0  0
 17 18  1  0  0  0  0
 18 19  2  0  0  0  0
  3 20  1  0  0  0  0
  2 21  1  0  0  0  0
  1 22  1  0  0  0  0
 18 23  1  0  0  0  0
  1  2  2  0  0  0  0
 23 24  1  0  0  0  0
  2  3  1  0  0  0  0
 24 25  1  0  0  0  0
  3  4  2  0  0  0  0
 25 26  2  0  0  0  0
  4  5  1  0  0  0  0
 25 27  1  0  0  0  0
  5  6  2  0  0  0  0
 24 28  1  1  0  0  0
  6  1  1  0  0  0  0
 28 29  1  0  0  0  0
  5  7  1  0  0  0  0
 29 30  1  0  0  0  0
 29 31  1  0  0  0  0
  7  8  2  0  0  0  0
  9 32  1  1  0  0  0
  7 32  1  0  0  0  0
M  END
> <Value>
4.2564902352715706

> <Relation>
=

> <SourceURI>
mol:CHEMBL575053

$$$$

Generated by Molecular Materials Informatics

 35 37  0  0  0  0  0  0  0  0999 V2000
   -8.0947   -1.1217    0.0000 C   0  0  0  0  0  0  0  0  0  0  0  0
   -8.0813   -2.6237    0.0000 C   0  0  0  0  0  0  0  0  0  0  0  0
   -6.7658   -3.3530    0.0000 C   0  0  0  0  0  0  0  0  0  0  0  0
   -5.4808   -2.5775    0.0000 C   0  0  0  0  0  0  0  0  0  0  0  0
   -5.5111   -1.0741    0.0000 C   0  0  0  0  0  0  0  0  0  0  0  0
   -6.8211   -0.3416    0.0000 C   0  0  0  0  0  0  0  0  0  0  0  0
   -4.2219   -0.2952    0.0000 C   0  0  0  0  0  0  0  0  0  0  0  0
   -4.2528    1.2040    0.0000 O   0  0  0  0  0  0  0  0  0  0  0  0
   -1.6289   -0.2456    0.0000 C   0  0  0  0  0  0  0  0  0  0  0  0
   -0.3051   -0.9752    0.0000 C   0  0  0  0  0  0  0  0  0  0  0  0
    0.9680   -0.2110    0.0000 N   0  0  0  0  0  0  0  0  0  0  0  0
    0.9432    1.2900    0.0000 C   0  0  0  0  0  0  0  0  0  0  0  0
   -0.3691    2.0196    0.0000 C   0  0  0  0  0  0  0  0  0  0  0  0
   -1.6642    1.2440    0.0000 C   0  0  0  0  0  0  0  0  0  0  0  0
   -0.2846   -2.4746    0.0000 O   0  0  0  0  0  0  0  0  0  0  0  0
    2.2316    2.0618    0.0000 O   0  0  0  0  0  0  0  0  0  0  0  0
    2.2779   -0.9387    0.0000 C   0  0  0  0  0  0  0  0  0  0  0  0
    3.5664   -0.1709    0.0000 C   0  0  0  0  0  0  0  0  0  0  0  0
    3.5370    1.3286    0.0000 O   0  0  0  0  0  0  0  0  0  0  0  0
   -6.7486   -4.8526    0.0000 O   0  0  0  0  0  0  0  0  0  0  0  0
   -9.3596   -3.3891    0.0000 O   0  0  0  0  0  0  0  0  0  0  0  0
   -9.4090   -0.3909    0.0000 O   0  0  0  0  0  0  0  0  0  0  0  0
    4.8778   -0.8990    0.0000 N   0  0  0  0  0  0  0  0  0  0  0  0
    6.1640   -0.1274    0.0000 C   0  0  0  0  0  0  0  0  0  0  0  0
    7.4754   -0.8556    0.0000 C   0  0  0  0  0  0  0  0  0  0  0  0
    8.7617   -0.0838    0.0000 O   0  0  0  0  0  0  0  0  0  0  0  0
    7.5005   -2.3552    0.0000 O   0  0  0  0  0  0  0  0  0  0  0  0
    6.1389    1.3724    0.0000 C   0  0  0  0  0  0  0  0  0  0  0  0
    7.4252    2.1440    0.0000 C   0  0  0  0  0  0  0  0  0  0  0  0
    8.7339    1.4113    0.0000 C   0  0  0  0  0  0  0  0  0  0  0  0
   10.0193    2.1816    0.0000 C   0  0  0  0  0  0  0  0  0  0  0  0
    9.9950    3.6830    0.0000 C   0  0  0  0  0  0  0  0  0  0  0  0
    8.6745    4.4107    0.0000 C   0  0  0  0  0  0  0  0  0  0  0  0
    7.3945    3.6361    0.0000 C   0  0  0  0  0  0  0  0  0  0  0  0
   -2.9110   -1.0241    0.0000 N   0  0  0  0  0  0  0  0  0  0  0  0
 10 11  1  0  0  0  0
 11 12  1  0  0  0  0
 12 13  1  0  0  0  0
 13 14  1  0  0  0  0
 10 15  2  0  0  0  0
 12 16  2  0  0  0  0
 11 17  1  0  0  0  0
 17 18  1  0  0  0  0
 18 19  2  0  0  0  0
  3 20  1  0  0  0  0
  2 21  1  0  0  0  0
  1 22  1  0  0  0  0
 18 23  1  0  0  0  0
  1  2  2  0  0  0  0
 23 24  1  0  0  0  0
  2  3  1  0  0  0  0
 24 25  1  0  0  0  0
  3  4  2  0  0  0  0
 25 26  2  0  0  0  0
  4  5  1  0  0  0  0
 25 27  1  0  0  0  0
  5  6  2  0  0  0  0
 24 28  1  1  0  0  0
  6  1  1  0  0  0  0
 28 29  1  0  0  0  0
  5  7  1  0  0  0  0
 29 30  2  0  0  0  0
 30 31  1  0  0  0  0
  7  8  2  0  0  0  0
 31 32  2  0  0  0  0
 32 33  1  0  0  0  0
  9 10  1  0  0  0  0
 33 34  2  0  0  0  0
 34 29  1  0  0  0  0
  9 14  1  0  0  0  0
  7 35  1  0  0  0  0
  9 35  1  1  0  0  0
M  END
> <Value>
4.987162775294828

> <Relation>
=

> <SourceURI>
mol:CHEMBL573926

$$$$

Generated by Molecular Materials Informatics

 22 22  0  0  0  0  0  0  0  0999 V2000
   -7.8685    1.6784    0.0000 C   0  0  0  0  0  0  0  0  0  0  0  0
   -7.8707    0.1741    0.0000 C   0  0  0  0  0  0  0  0  0  0  0  0
   -6.5710   -0.5765    0.0000 C   0  0  0  0  0  0  0  0  0  0  0  0
   -5.2683    0.1750    0.0000 C   0  0  0  0  0  0  0  0  0  0  0  0
   -5.2736    1.6850    0.0000 C   0  0  0  0  0  0  0  0  0  0  0  0
   -6.5743    2.4290    0.0000 C   0  0  0  0  0  0  0  0  0  0  0  0
   -3.9774    2.4399    0.0000 C   0  0  0  0  0  0  0  0  0  0  0  0
   -2.6756    1.6948    0.0000 C   0  0  0  0  0  0  0  0  0  0  0  0
   -1.3792    2.4497    0.0000 C   0  0  0  0  0  0  0  0  0  0  0  0
   -1.3850    3.9497    0.0000 O   0  0  0  0  0  0  0  0  0  0  0  0
   -0.0774    1.7046    0.0000 N   0  0  0  0  0  0  0  0  0  0  0  0
    1.2188    2.4595    0.0000 C   0  0  0  0  0  0  0  0  0  0  0  0
    2.5206    1.7144    0.0000 C   0  0  0  0  0  0  0  0  0  0  0  0
    1.2131    3.9595    0.0000 C   0  0  0  0  0  0  0  0  0  0  0  0
    2.5093    4.7144    0.0000 O   0  0  0  0  0  0  0  0  0  0  0  0
   -0.0887    4.7046    0.0000 O   0  0  0  0  0  0  0  0  0  0  0  0
    3.8168    2.4693    0.0000 C   0  0  0  0  0  0  0  0  0  0  0  0
    3.8111    3.9693    0.0000 O   0  0  0  0  0  0  0  0  0  0  0  0
    5.1186    1.7243    0.0000 N   0  0  0  0  0  0  0  0  0  0  0  0
    5.1242    0.2243    0.0000 C   0  0  0  0  0  0  0  0  0  0  0  0
    6.4262   -0.5208    0.0000 C   0  0  0  0  0  0  0  0  0  0  0  0
    6.4319   -2.0208    0.0000 C   0  0  0  0  0  0  0  0  0  0  0  0
  9 11  1  0  0  0  0
  5  6  2  0  0  0  0
 12 11  1  1  0  0  0
  6  1  1  0  0  0  0
 12 13  1  0  0  0  0
  1  2  2  0  0  0  0
 12 14  1  0  0  0  0
  5  7  1  0  0  0  0
 14 15  1  0  0  0  0
  3  4  2  0  0  0  0
 14 16  2  0  0  0  0
  7  8  2  0  0  0  0
 13 17  1  0  0  0  0
 17 18  2  0  0  0  0
  8  9  1  0  0  0  0
 17 19  1  0  0  0  0
  4  5  1  0  0  0  0
 19 20  1  0  0  0  0
  9 10  2  0  0  0  0
 20 21  1  0  0  0  0
  2  3  1  0  0  0  0
 21 22  1  0  0  0  0
M  END
> <Value>
2.040548369349536

> <Relation>
=

> <SourceURI>
mol:CHEMBL611643

$$$$

Generated by Molecular Materials Informatics

 22 22  0  0  0  0  0  0  0  0999 V2000
    2.0910    1.7868    0.0000 C   0  0  0  0  0  0  0  0  0  0  0  0
    2.0889    0.2826    0.0000 C   0  0  0  0  0  0  0  0  0  0  0  0
    3.3887   -0.4682    0.0000 C   0  0  0  0  0  0  0  0  0  0  0  0
    4.6912    0.2833    0.0000 C   0  0  0  0  0  0  0  0  0  0  0  0
    4.6860    1.7935    0.0000 C   0  0  0  0  0  0  0  0  0  0  0  0
    3.3854    2.5373    0.0000 C   0  0  0  0  0  0  0  0  0  0  0  0
    5.9823    2.5484    0.0000 C   0  0  0  0  0  0  0  0  0  0  0  0
    7.2842    1.8033    0.0000 C   0  0  0  0  0  0  0  0  0  0  0  0
    8.5803    2.5580    0.0000 C   0  0  0  0  0  0  0  0  0  0  0  0
    8.5747    4.0580    0.0000 O   0  0  0  0  0  0  0  0  0  0  0  0
    9.8822    1.8129    0.0000 N   0  0  0  0  0  0  0  0  0  0  0  0
   11.1784    2.5678    0.0000 C   0  0  0  0  0  0  0  0  0  0  0  0
   12.4802    1.8228    0.0000 C   0  0  0  0  0  0  0  0  0  0  0  0
   11.1727    4.0679    0.0000 C   0  0  0  0  0  0  0  0  0  0  0  0
   12.4689    4.8228    0.0000 O   0  0  0  0  0  0  0  0  0  0  0  0
    9.8709    4.8130    0.0000 O   0  0  0  0  0  0  0  0  0  0  0  0
   13.7766    2.5777    0.0000 C   0  0  0  0  0  0  0  0  0  0  0  0
   13.7707    4.0777    0.0000 O   0  0  0  0  0  0  0  0  0  0  0  0
   15.0784    1.8326    0.0000 N   0  0  0  0  0  0  0  0  0  0  0  0
   15.0840    0.3326    0.0000 C   0  0  0  0  0  0  0  0  0  0  0  0
   16.3858   -0.4125    0.0000 C   0  0  0  0  0  0  0  0  0  0  0  0
   13.7878   -0.4224    0.0000 C   0  0  0  0  0  0  0  0  0  0  0  0
  9 11  1  0  0  0  0
  5  6  2  0  0  0  0
 12 11  1  1  0  0  0
  6  1  1  0  0  0  0
 12 13  1  0  0  0  0
  1  2  2  0  0  0  0
 12 14  1  0  0  0  0
  5  7  1  0  0  0  0
 14 15  1  0  0  0  0
  3  4  2  0  0  0  0
 14 16  2  0  0  0  0
  7  8  2  0  0  0  0
 13 17  1  0  0  0  0
 17 18  2  0  0  0  0
  8  9  1  0  0  0  0
 17 19  1  0  0  0  0
  4  5  1  0  0  0  0
 19 20  1  0  0  0  0
  9 10  2  0  0  0  0
 20 21  1  0  0  0  0
  2  3  1  0  0  0  0
 20 22  1  0  0  0  0
M  END
> <Value>
2.6576365451908277

> <Relation>
=

> <SourceURI>
mol:CHEMBL595870

$$$$

Generated by Molecular Materials Informatics

 29 30  0  0  0  0  0  0  0  0999 V2000
   -9.5955  -25.0332    0.0000 C   0  0  0  0  0  0  0  0  0  0  0  0
   -9.5975  -26.5374    0.0000 C   0  0  0  0  0  0  0  0  0  0  0  0
   -8.2979  -27.2881    0.0000 C   0  0  0  0  0  0  0  0  0  0  0  0
   -6.9953  -26.5367    0.0000 C   0  0  0  0  0  0  0  0  0  0  0  0
   -7.0004  -25.0265    0.0000 C   0  0  0  0  0  0  0  0  0  0  0  0
   -8.3011  -24.2827    0.0000 C   0  0  0  0  0  0  0  0  0  0  0  0
   -5.7042  -24.2716    0.0000 C   0  0  0  0  0  0  0  0  0  0  0  0
   -4.4024  -25.0167    0.0000 C   0  0  0  0  0  0  0  0  0  0  0  0
   -3.1063  -24.2619    0.0000 C   0  0  0  0  0  0  0  0  0  0  0  0
   -3.1119  -22.7620    0.0000 O   0  0  0  0  0  0  0  0  0  0  0  0
   -1.8044  -25.0070    0.0000 N   0  0  0  0  0  0  0  0  0  0  0  0
   -0.5081  -24.2521    0.0000 C   0  0  0  0  0  0  0  0  0  0  0  0
    0.7937  -24.9972    0.0000 C   0  0  0  0  0  0  0  0  0  0  0  0
   -0.5139  -22.7521    0.0000 C   0  0  0  0  0  0  0  0  0  0  0  0
   -1.8157  -22.0071    0.0000 O   0  0  0  0  0  0  0  0  0  0  0  0
    2.0899  -24.2423    0.0000 C   0  0  0  0  0  0  0  0  0  0  0  0
    2.0842  -22.7423    0.0000 O   0  0  0  0  0  0  0  0  0  0  0  0
    3.3917  -24.9874    0.0000 N   0  0  0  0  0  0  0  0  0  0  0  0
    4.6917  -24.2390    0.0000 C   0  0  0  0  0  0  0  0  0  0  0  0
    5.9857  -24.9992    0.0000 C   0  0  0  0  0  0  0  0  0  0  0  0
    7.2848  -24.2521    0.0000 C   0  0  0  0  0  0  0  0  0  0  0  0
    7.2875  -22.7507    0.0000 C   0  0  0  0  0  0  0  0  0  0  0  0
    5.9804  -21.9992    0.0000 C   0  0  0  0  0  0  0  0  0  0  0  0
    4.6866  -22.7505    0.0000 C   0  0  0  0  0  0  0  0  0  0  0  0
    5.9775  -20.4945    0.0000 N   0  3  0  0  0  0  0  0  0  0  0  0
    4.6768  -19.7474    0.0000 O   0  0  0  0  0  0  0  0  0  0  0  0
    7.2748  -19.7418    0.0000 O   0  5  0  0  0  0  0  0  0  0  0  0
    0.7824  -21.9972    0.0000 N   0  0  0  0  0  0  0  0  0  0  0  0
    0.7766  -20.4972    0.0000 O   0  0  0  0  0  0  0  0  0  0  0  0
  5  7  1  0  0  0  0
 14 15  2  0  0  0  0
  3  4  2  0  0  0  0
 13 16  1  0  0  0  0
  7  8  2  0  0  0  0
 16 17  2  0  0  0  0
 16 18  1  0  0  0  0
  8  9  1  0  0  0  0
 18 19  1  0  0  0  0
  4  5  1  0  0  0  0
 19 20  2  0  0  0  0
  9 10  2  0  0  0  0
 20 21  1  0  0  0  0
  2  3  1  0  0  0  0
 21 22  2  0  0  0  0
  9 11  1  0  0  0  0
 22 23  1  0  0  0  0
  5  6  2  0  0  0  0
 23 24  2  0  0  0  0
 24 19  1  0  0  0  0
 12 11  1  1  0  0  0
  6  1  1  0  0  0  0
 12 13  1  0  0  0  0
 25 26  2  0  0  0  0
 25 27  1  0  0  0  0
 23 25  1  0  0  0  0
  1  2  2  0  0  0  0
 14 28  1  0  0  0  0
 12 14  1  0  0  0  0
 28 29  1  0  0  0  0
M  CHG  2  25   1  27  -1
M  END
> <Value>
2.8416375079047502

> <Relation>
=

> <SourceURI>
mol:CHEMBL594937

$$$$

Generated by Molecular Materials Informatics

 26 27  0  0  0  0  0  0  0  0999 V2000
    2.3398   -8.3370    0.0000 C   0  0  0  0  0  0  0  0  0  0  0  0
    2.3376   -9.8414    0.0000 C   0  0  0  0  0  0  0  0  0  0  0  0
    3.6374  -10.5919    0.0000 C   0  0  0  0  0  0  0  0  0  0  0  0
    4.9400   -9.8405    0.0000 C   0  0  0  0  0  0  0  0  0  0  0  0
    4.9347   -8.3304    0.0000 C   0  0  0  0  0  0  0  0  0  0  0  0
    3.6341   -7.5864    0.0000 C   0  0  0  0  0  0  0  0  0  0  0  0
    6.2311   -7.5755    0.0000 C   0  0  0  0  0  0  0  0  0  0  0  0
    7.5329   -8.3206    0.0000 C   0  0  0  0  0  0  0  0  0  0  0  0
    8.8291   -7.5657    0.0000 C   0  0  0  0  0  0  0  0  0  0  0  0
    8.8234   -6.0657    0.0000 O   0  0  0  0  0  0  0  0  0  0  0  0
   10.1309   -8.3108    0.0000 N   0  0  0  0  0  0  0  0  0  0  0  0
   11.4271   -7.5559    0.0000 C   0  0  0  0  0  0  0  0  0  0  0  0
   12.7289   -8.3010    0.0000 C   0  0  0  0  0  0  0  0  0  0  0  0
   11.4215   -6.0559    0.0000 C   0  0  0  0  0  0  0  0  0  0  0  0
   12.7176   -5.3010    0.0000 O   0  0  0  0  0  0  0  0  0  0  0  0
   10.1196   -5.3108    0.0000 O   0  0  0  0  0  0  0  0  0  0  0  0
   14.0253   -7.5461    0.0000 C   0  0  0  0  0  0  0  0  0  0  0  0
   14.0195   -6.0461    0.0000 O   0  0  0  0  0  0  0  0  0  0  0  0
   15.3271   -8.2912    0.0000 N   0  0  0  0  0  0  0  0  0  0  0  0
   16.6402  -12.0363    0.0000 C   0  0  0  0  0  0  0  0  0  0  0  0
   16.6224  -10.5374    0.0000 C   0  0  0  0  0  0  0  0  0  0  0  0
   15.3173   -9.8068    0.0000 C   0  0  0  0  0  0  0  0  0  0  0  0
   14.0295  -10.5728    0.0000 C   0  0  0  0  0  0  0  0  0  0  0  0
   14.0547  -12.0774    0.0000 C   0  0  0  0  0  0  0  0  0  0  0  0
   15.3606  -12.8014    0.0000 C   0  0  0  0  0  0  0  0  0  0  0  0
   15.3851  -14.3010    0.0000 Cl  0  0  0  0  0  0  0  0  0  0  0  0
 12 13  1  0  0  0  0
  1  2  2  0  0  0  0
 12 14  1  0  0  0  0
  5  7  1  0  0  0  0
 14 15  1  0  0  0  0
  3  4  2  0  0  0  0
 14 16  2  0  0  0  0
  7  8  2  0  0  0  0
 13 17  1  0  0  0  0
 17 18  2  0  0  0  0
  8  9  1  0  0  0  0
 17 19  1  0  0  0  0
 19 22  1  0  0  0  0
  4  5  1  0  0  0  0
  9 10  2  0  0  0  0
 20 21  1  0  0  0  0
  2  3  1  0  0  0  0
 21 22  2  0  0  0  0
  9 11  1  0  0  0  0
 22 23  1  0  0  0  0
  5  6  2  0  0  0  0
 23 24  2  0  0  0  0
 12 11  1  1  0  0  0
 24 25  1  0  0  0  0
 25 20  2  0  0  0  0
  6  1  1  0  0  0  0
 25 26  1  0  0  0  0
M  END
> <Value>
3.4577972175659717

> <Relation>
=

> <SourceURI>
mol:CHEMBL593793

$$$$

Generated by Molecular Materials Informatics

 30 32  0  0  0  0  0  0  0  0999 V2000
   10.9543  -25.2210    0.0000 C   0  0  0  0  0  0  0  0  0  0  0  0
   10.9523  -26.7254    0.0000 C   0  0  0  0  0  0  0  0  0  0  0  0
   12.2520  -27.4759    0.0000 C   0  0  0  0  0  0  0  0  0  0  0  0
   13.5546  -26.7245    0.0000 C   0  0  0  0  0  0  0  0  0  0  0  0
   13.5495  -25.2144    0.0000 C   0  0  0  0  0  0  0  0  0  0  0  0
   12.2487  -24.4704    0.0000 C   0  0  0  0  0  0  0  0  0  0  0  0
   14.8457  -24.4595    0.0000 C   0  0  0  0  0  0  0  0  0  0  0  0
   16.1475  -25.2046    0.0000 C   0  0  0  0  0  0  0  0  0  0  0  0
   17.4437  -24.4497    0.0000 C   0  0  0  0  0  0  0  0  0  0  0  0
   17.4381  -22.9497    0.0000 O   0  0  0  0  0  0  0  0  0  0  0  0
   18.7455  -25.1948    0.0000 N   0  0  0  0  0  0  0  0  0  0  0  0
   20.0419  -24.4399    0.0000 C   0  0  0  0  0  0  0  0  0  0  0  0
   21.3438  -25.1850    0.0000 C   0  0  0  0  0  0  0  0  0  0  0  0
   20.0361  -22.9399    0.0000 C   0  0  0  0  0  0  0  0  0  0  0  0
   18.7343  -22.1948    0.0000 O   0  0  0  0  0  0  0  0  0  0  0  0
   22.6400  -24.4301    0.0000 C   0  0  0  0  0  0  0  0  0  0  0  0
   22.6343  -22.9300    0.0000 O   0  0  0  0  0  0  0  0  0  0  0  0
   23.9418  -25.1752    0.0000 N   0  0  0  0  0  0  0  0  0  0  0  0
   25.2418  -24.4270    0.0000 C   0  0  0  0  0  0  0  0  0  0  0  0
   26.5358  -25.1870    0.0000 C   0  0  0  0  0  0  0  0  0  0  0  0
   27.8349  -24.4401    0.0000 C   0  0  0  0  0  0  0  0  0  0  0  0
   27.8377  -22.9384    0.0000 C   0  0  0  0  0  0  0  0  0  0  0  0
   25.2367  -22.9384    0.0000 C   0  0  0  0  0  0  0  0  0  0  0  0
   26.5255  -22.1924    0.0000 C   0  0  0  0  0  0  0  0  0  0  0  0
   26.5220  -20.7067    0.0000 C   0  0  0  0  0  0  0  0  0  0  0  0
   25.2313  -19.9653    0.0000 C   0  0  0  0  0  0  0  0  0  0  0  0
   23.9412  -20.7202    0.0000 C   0  0  0  0  0  0  0  0  0  0  0  0
   23.9509  -22.2035    0.0000 C   0  0  0  0  0  0  0  0  0  0  0  0
   21.3325  -22.1849    0.0000 N   0  0  0  0  0  0  0  0  0  0  0  0
   21.3267  -20.6849    0.0000 O   0  0  0  0  0  0  0  0  0  0  0  0
 14 15  2  0  0  0  0
  3  4  2  0  0  0  0
 13 16  1  0  0  0  0
  7  8  2  0  0  0  0
 16 17  2  0  0  0  0
 16 18  1  0  0  0  0
  8  9  1  0  0  0  0
 18 19  1  0  0  0  0
  4  5  1  0  0  0  0
 19 20  2  0  0  0  0
  9 10  2  0  0  0  0
 20 21  1  0  0  0  0
  2  3  1  0  0  0  0
 21 22  2  0  0  0  0
 22 24  1  0  0  0  0
 23 19  1  0  0  0  0
  9 11  1  0  0  0  0
  5  6  2  0  0  0  0
 23 24  1  0  0  0  0
 12 11  1  1  0  0  0
 24 25  2  0  0  0  0
  6  1  1  0  0  0  0
 25 26  1  0  0  0  0
 12 13  1  0  0  0  0
 26 27  2  0  0  0  0
  1  2  2  0  0  0  0
 27 28  1  0  0  0  0
 28 23  2  0  0  0  0
 12 14  1  0  0  0  0
 14 29  1  0  0  0  0
  5  7  1  0  0  0  0
 29 30  1  0  0  0  0
M  END
> <Value>
2.688246138944246

> <Relation>
=

> <SourceURI>
mol:CHEMBL593782

$$$$

Generated by Molecular Materials Informatics

 31 31  0  0  0  0  0  0  0  0999 V2000
  -10.0507   -6.9041    0.0000 C   0  0  0  0  0  0  0  0  0  0  0  0
  -10.0529   -8.4084    0.0000 C   0  0  0  0  0  0  0  0  0  0  0  0
   -8.7532   -9.1592    0.0000 C   0  0  0  0  0  0  0  0  0  0  0  0
   -7.4505   -8.4075    0.0000 C   0  0  0  0  0  0  0  0  0  0  0  0
   -7.4558   -6.8975    0.0000 C   0  0  0  0  0  0  0  0  0  0  0  0
   -8.7565   -6.1537    0.0000 C   0  0  0  0  0  0  0  0  0  0  0  0
   -6.1596   -6.1426    0.0000 C   0  0  0  0  0  0  0  0  0  0  0  0
   -4.8578   -6.8877    0.0000 C   0  0  0  0  0  0  0  0  0  0  0  0
   -3.5614   -6.1328    0.0000 C   0  0  0  0  0  0  0  0  0  0  0  0
   -3.5672   -4.6328    0.0000 O   0  0  0  0  0  0  0  0  0  0  0  0
   -2.2596   -6.8779    0.0000 N   0  0  0  0  0  0  0  0  0  0  0  0
   -0.9634   -6.1230    0.0000 C   0  0  0  0  0  0  0  0  0  0  0  0
    0.3384   -6.8681    0.0000 C   0  0  0  0  0  0  0  0  0  0  0  0
   -0.9690   -4.6230    0.0000 C   0  0  0  0  0  0  0  0  0  0  0  0
    0.3272   -3.8682    0.0000 O   0  0  0  0  0  0  0  0  0  0  0  0
   -2.2708   -3.8779    0.0000 O   0  0  0  0  0  0  0  0  0  0  0  0
    1.6346   -6.1133    0.0000 C   0  0  0  0  0  0  0  0  0  0  0  0
    1.6290   -4.6133    0.0000 O   0  0  0  0  0  0  0  0  0  0  0  0
    2.9365   -6.8584    0.0000 N   0  0  0  0  0  0  0  0  0  0  0  0
    2.9421   -8.3584    0.0000 C   0  0  0  0  0  0  0  0  0  0  0  0
    4.2441   -9.1035    0.0000 C   0  0  0  0  0  0  0  0  0  0  0  0
    4.2497  -10.6035    0.0000 C   0  0  0  0  0  0  0  0  0  0  0  0
    5.5516  -11.3486    0.0000 C   0  0  0  0  0  0  0  0  0  0  0  0
    5.5572  -12.8485    0.0000 C   0  0  0  0  0  0  0  0  0  0  0  0
    6.8590  -13.5937    0.0000 C   0  0  0  0  0  0  0  0  0  0  0  0
    6.8647  -15.0936    0.0000 C   0  0  0  0  0  0  0  0  0  0  0  0
    8.1667  -15.8387    0.0000 C   0  0  0  0  0  0  0  0  0  0  0  0
    8.1723  -17.3387    0.0000 C   0  0  0  0  0  0  0  0  0  0  0  0
    9.4741  -18.0838    0.0000 C   0  0  0  0  0  0  0  0  0  0  0  0
    9.4798  -19.5838    0.0000 C   0  0  0  0  0  0  0  0  0  0  0  0
   10.7816  -20.3289    0.0000 C   0  0  0  0  0  0  0  0  0  0  0  0
  3  4  2  0  0  0  0
 14 16  2  0  0  0  0
  7  8  2  0  0  0  0
 13 17  1  0  0  0  0
 17 18  2  0  0  0  0
  8  9  1  0  0  0  0
 17 19  1  0  0  0  0
  4  5  1  0  0  0  0
 19 20  1  0  0  0  0
  9 10  2  0  0  0  0
 20 21  1  0  0  0  0
  2  3  1  0  0  0  0
 21 22  1  0  0  0  0
  9 11  1  0  0  0  0
 22 23  1  0  0  0  0
  5  6  2  0  0  0  0
 23 24  1  0  0  0  0
 12 11  1  1  0  0  0
 24 25  1  0  0  0  0
  6  1  1  0  0  0  0
 25 26  1  0  0  0  0
 12 13  1  0  0  0  0
 26 27  1  0  0  0  0
  1  2  2  0  0  0  0
 27 28  1  0  0  0  0
 12 14  1  0  0  0  0
 28 29  1  0  0  0  0
  5  7  1  0  0  0  0
 29 30  1  0  0  0  0
 14 15  1  0  0  0  0
 30 31  1  0  0  0  0
M  END
> <Value>
3.016824927962187

> <Relation>
=

> <SourceURI>
mol:CHEMBL594941

$$$$

Generated by Molecular Materials Informatics

 26 27  0  0  0  0  0  0  0  0999 V2000
   -8.5589  -13.9827    0.0000 C   0  0  0  0  0  0  0  0  0  0  0  0
   -8.5610  -15.4870    0.0000 C   0  0  0  0  0  0  0  0  0  0  0  0
   -7.2612  -16.2378    0.0000 C   0  0  0  0  0  0  0  0  0  0  0  0
   -5.9587  -15.4861    0.0000 C   0  0  0  0  0  0  0  0  0  0  0  0
   -5.9639  -13.9761    0.0000 C   0  0  0  0  0  0  0  0  0  0  0  0
   -7.2645  -13.2323    0.0000 C   0  0  0  0  0  0  0  0  0  0  0  0
   -4.6676  -13.2212    0.0000 C   0  0  0  0  0  0  0  0  0  0  0  0
   -3.3657  -13.9663    0.0000 C   0  0  0  0  0  0  0  0  0  0  0  0
   -2.0695  -13.2114    0.0000 C   0  0  0  0  0  0  0  0  0  0  0  0
   -2.0752  -11.7114    0.0000 O   0  0  0  0  0  0  0  0  0  0  0  0
   -0.7677  -13.9565    0.0000 N   0  0  0  0  0  0  0  0  0  0  0  0
    0.5285  -13.2016    0.0000 C   0  0  0  0  0  0  0  0  0  0  0  0
    1.8303  -13.9467    0.0000 C   0  0  0  0  0  0  0  0  0  0  0  0
    0.5228  -11.7016    0.0000 C   0  0  0  0  0  0  0  0  0  0  0  0
    1.8190  -10.9468    0.0000 O   0  0  0  0  0  0  0  0  0  0  0  0
   -0.7790  -10.9565    0.0000 O   0  0  0  0  0  0  0  0  0  0  0  0
    3.1267  -13.1919    0.0000 C   0  0  0  0  0  0  0  0  0  0  0  0
    3.1209  -11.6919    0.0000 O   0  0  0  0  0  0  0  0  0  0  0  0
    4.4285  -13.9370    0.0000 N   0  0  0  0  0  0  0  0  0  0  0  0
    5.7416  -17.6821    0.0000 C   0  0  0  0  0  0  0  0  0  0  0  0
    5.7238  -16.1832    0.0000 C   0  0  0  0  0  0  0  0  0  0  0  0
    4.4187  -15.4525    0.0000 C   0  0  0  0  0  0  0  0  0  0  0  0
    3.1309  -16.2187    0.0000 C   0  0  0  0  0  0  0  0  0  0  0  0
    3.1561  -17.7232    0.0000 C   0  0  0  0  0  0  0  0  0  0  0  0
    4.4619  -18.4471    0.0000 C   0  0  0  0  0  0  0  0  0  0  0  0
    7.0132  -15.4169    0.0000 Cl  0  0  0  0  0  0  0  0  0  0  0  0
 12 13  1  0  0  0  0
  1  2  2  0  0  0  0
 12 14  1  0  0  0  0
  5  7  1  0  0  0  0
 14 15  1  0  0  0  0
  3  4  2  0  0  0  0
 14 16  2  0  0  0  0
  7  8  2  0  0  0  0
 13 17  1  0  0  0  0
 17 18  2  0  0  0  0
  8  9  1  0  0  0  0
 17 19  1  0  0  0  0
 19 22  1  0  0  0  0
  4  5  1  0  0  0  0
  9 10  2  0  0  0  0
 20 21  1  0  0  0  0
  2  3  1  0  0  0  0
 21 22  2  0  0  0  0
  9 11  1  0  0  0  0
 22 23  1  0  0  0  0
  5  6  2  0  0  0  0
 23 24  2  0  0  0  0
 12 11  1  1  0  0  0
 24 25  1  0  0  0  0
 25 20  2  0  0  0  0
  6  1  1  0  0  0  0
 21 26  1  0  0  0  0
M  END
> <Value>
3.579384229374235

> <Relation>
=

> <SourceURI>
mol:CHEMBL593794

$$$$

Generated by Molecular Materials Informatics

 26 27  0  0  0  0  0  0  0  0999 V2000
    3.9201  -14.9827    0.0000 C   0  0  0  0  0  0  0  0  0  0  0  0
    3.9179  -16.4871    0.0000 C   0  0  0  0  0  0  0  0  0  0  0  0
    5.2177  -17.2378    0.0000 C   0  0  0  0  0  0  0  0  0  0  0  0
    6.5203  -16.4862    0.0000 C   0  0  0  0  0  0  0  0  0  0  0  0
    6.5151  -14.9761    0.0000 C   0  0  0  0  0  0  0  0  0  0  0  0
    5.2145  -14.2323    0.0000 C   0  0  0  0  0  0  0  0  0  0  0  0
    7.8114  -14.2212    0.0000 C   0  0  0  0  0  0  0  0  0  0  0  0
    9.1133  -14.9663    0.0000 C   0  0  0  0  0  0  0  0  0  0  0  0
   10.4095  -14.2114    0.0000 C   0  0  0  0  0  0  0  0  0  0  0  0
   10.4039  -12.7113    0.0000 O   0  0  0  0  0  0  0  0  0  0  0  0
   11.7114  -14.9565    0.0000 N   0  0  0  0  0  0  0  0  0  0  0  0
   13.0076  -14.2016    0.0000 C   0  0  0  0  0  0  0  0  0  0  0  0
   14.3094  -14.9467    0.0000 C   0  0  0  0  0  0  0  0  0  0  0  0
   13.0019  -12.7015    0.0000 C   0  0  0  0  0  0  0  0  0  0  0  0
   14.2981  -11.9468    0.0000 O   0  0  0  0  0  0  0  0  0  0  0  0
   11.7001  -11.9564    0.0000 O   0  0  0  0  0  0  0  0  0  0  0  0
   15.6058  -14.1919    0.0000 C   0  0  0  0  0  0  0  0  0  0  0  0
   15.6000  -12.6919    0.0000 O   0  0  0  0  0  0  0  0  0  0  0  0
   16.9077  -14.9370    0.0000 N   0  0  0  0  0  0  0  0  0  0  0  0
   18.2208  -18.6822    0.0000 C   0  0  0  0  0  0  0  0  0  0  0  0
   18.2030  -17.1833    0.0000 C   0  0  0  0  0  0  0  0  0  0  0  0
   16.8978  -16.4525    0.0000 C   0  0  0  0  0  0  0  0  0  0  0  0
   15.6100  -17.2187    0.0000 C   0  0  0  0  0  0  0  0  0  0  0  0
   15.6353  -18.7233    0.0000 C   0  0  0  0  0  0  0  0  0  0  0  0
   16.9411  -19.4471    0.0000 C   0  0  0  0  0  0  0  0  0  0  0  0
   19.5299  -19.4144    0.0000 Cl  0  0  0  0  0  0  0  0  0  0  0  0
 12 13  1  0  0  0  0
  1  2  2  0  0  0  0
 12 14  1  0  0  0  0
  5  7  1  0  0  0  0
 14 15  1  0  0  0  0
  3  4  2  0  0  0  0
 14 16  2  0  0  0  0
  7  8  2  0  0  0  0
 13 17  1  0  0  0  0
 17 18  2  0  0  0  0
  8  9  1  0  0  0  0
 17 19  1  0  0  0  0
 19 22  1  0  0  0  0
  4  5  1  0  0  0  0
  9 10  2  0  0  0  0
 20 21  1  0  0  0  0
  2  3  1  0  0  0  0
 21 22  2  0  0  0  0
  9 11  1  0  0  0  0
 22 23  1  0  0  0  0
  5  6  2  0  0  0  0
 23 24  2  0  0  0  0
 12 11  1  1  0  0  0
 24 25  1  0  0  0  0
 25 20  2  0  0  0  0
  6  1  1  0  0  0  0
 20 26  1  0  0  0  0
M  END
> <Value>
3.1435127871313693

> <Relation>
=

> <SourceURI>
mol:CHEMBL593562

$$$$

Generated by Molecular Materials Informatics

 27 28  0  0  0  0  0  0  0  0999 V2000
    3.7493  -15.1827    0.0000 C   0  0  0  0  0  0  0  0  0  0  0  0
    3.7472  -16.6871    0.0000 C   0  0  0  0  0  0  0  0  0  0  0  0
    5.0468  -17.4378    0.0000 C   0  0  0  0  0  0  0  0  0  0  0  0
    6.3496  -16.6862    0.0000 C   0  0  0  0  0  0  0  0  0  0  0  0
    6.3443  -15.1761    0.0000 C   0  0  0  0  0  0  0  0  0  0  0  0
    5.0436  -14.4323    0.0000 C   0  0  0  0  0  0  0  0  0  0  0  0
    7.6405  -14.4212    0.0000 C   0  0  0  0  0  0  0  0  0  0  0  0
    8.9423  -15.1663    0.0000 C   0  0  0  0  0  0  0  0  0  0  0  0
   10.2387  -14.4114    0.0000 C   0  0  0  0  0  0  0  0  0  0  0  0
   10.2329  -12.9114    0.0000 O   0  0  0  0  0  0  0  0  0  0  0  0
   11.5406  -15.1565    0.0000 N   0  0  0  0  0  0  0  0  0  0  0  0
   12.8368  -14.4016    0.0000 C   0  0  0  0  0  0  0  0  0  0  0  0
   14.1386  -15.1467    0.0000 C   0  0  0  0  0  0  0  0  0  0  0  0
   12.8311  -12.9016    0.0000 C   0  0  0  0  0  0  0  0  0  0  0  0
   11.5293  -12.1565    0.0000 O   0  0  0  0  0  0  0  0  0  0  0  0
   15.4348  -14.3919    0.0000 C   0  0  0  0  0  0  0  0  0  0  0  0
   15.4292  -12.8919    0.0000 O   0  0  0  0  0  0  0  0  0  0  0  0
   16.7366  -15.1370    0.0000 N   0  0  0  0  0  0  0  0  0  0  0  0
   18.0499  -18.8820    0.0000 C   0  0  0  0  0  0  0  0  0  0  0  0
   18.0319  -17.3833    0.0000 C   0  0  0  0  0  0  0  0  0  0  0  0
   16.7270  -16.6525    0.0000 C   0  0  0  0  0  0  0  0  0  0  0  0
   15.4392  -17.4187    0.0000 C   0  0  0  0  0  0  0  0  0  0  0  0
   15.4642  -18.9233    0.0000 C   0  0  0  0  0  0  0  0  0  0  0  0
   16.7703  -19.6471    0.0000 C   0  0  0  0  0  0  0  0  0  0  0  0
   19.3590  -19.6144    0.0000 Cl  0  0  0  0  0  0  0  0  0  0  0  0
   14.1273  -12.1468    0.0000 N   0  0  0  0  0  0  0  0  0  0  0  0
   14.1217  -10.6468    0.0000 O   0  0  0  0  0  0  0  0  0  0  0  0
  1  2  2  0  0  0  0
 12 14  1  0  0  0  0
  5  7  1  0  0  0  0
 14 15  2  0  0  0  0
  3  4  2  0  0  0  0
 13 16  1  0  0  0  0
  7  8  2  0  0  0  0
 16 17  2  0  0  0  0
 16 18  1  0  0  0  0
 18 21  1  0  0  0  0
  8  9  1  0  0  0  0
  4  5  1  0  0  0  0
 19 20  1  0  0  0  0
  9 10  2  0  0  0  0
 20 21  2  0  0  0  0
  2  3  1  0  0  0  0
 21 22  1  0  0  0  0
  9 11  1  0  0  0  0
 22 23  2  0  0  0  0
  5  6  2  0  0  0  0
 23 24  1  0  0  0  0
 24 19  2  0  0  0  0
 12 11  1  1  0  0  0
 19 25  1  0  0  0  0
  6  1  1  0  0  0  0
 14 26  1  0  0  0  0
 12 13  1  0  0  0  0
 26 27  1  0  0  0  0
M  END
> <Value>
2.9186526921958675

> <Relation>
=

> <SourceURI>
mol:CHEMBL595672

$$$$

Generated by Molecular Materials Informatics

 27 28  0  0  0  0  0  0  0  0999 V2000
   14.5934  -13.7177    0.0000 Cl  0  0  0  0  0  0  0  0  0  0  0  0
    1.5480   -7.7537    0.0000 C   0  0  0  0  0  0  0  0  0  0  0  0
    1.5460   -9.2579    0.0000 C   0  0  0  0  0  0  0  0  0  0  0  0
    2.8457  -10.0086    0.0000 C   0  0  0  0  0  0  0  0  0  0  0  0
    4.1482   -9.2572    0.0000 C   0  0  0  0  0  0  0  0  0  0  0  0
    4.1431   -7.7470    0.0000 C   0  0  0  0  0  0  0  0  0  0  0  0
    2.8424   -7.0031    0.0000 C   0  0  0  0  0  0  0  0  0  0  0  0
    5.4393   -6.9921    0.0000 C   0  0  0  0  0  0  0  0  0  0  0  0
    6.7411   -7.7372    0.0000 C   0  0  0  0  0  0  0  0  0  0  0  0
    8.0373   -6.9824    0.0000 C   0  0  0  0  0  0  0  0  0  0  0  0
    8.0317   -5.4824    0.0000 O   0  0  0  0  0  0  0  0  0  0  0  0
    9.3392   -7.7275    0.0000 N   0  0  0  0  0  0  0  0  0  0  0  0
   10.6355   -6.9726    0.0000 C   0  0  0  0  0  0  0  0  0  0  0  0
   11.9374   -7.7177    0.0000 C   0  0  0  0  0  0  0  0  0  0  0  0
   10.6297   -5.4726    0.0000 C   0  0  0  0  0  0  0  0  0  0  0  0
    9.3279   -4.7275    0.0000 O   0  0  0  0  0  0  0  0  0  0  0  0
   13.2335   -6.9628    0.0000 C   0  0  0  0  0  0  0  0  0  0  0  0
   13.2279   -5.4628    0.0000 O   0  0  0  0  0  0  0  0  0  0  0  0
   14.5354   -7.7079    0.0000 N   0  0  0  0  0  0  0  0  0  0  0  0
   15.8485  -11.4530    0.0000 C   0  0  0  0  0  0  0  0  0  0  0  0
   15.8307   -9.9541    0.0000 C   0  0  0  0  0  0  0  0  0  0  0  0
   14.5257   -9.2233    0.0000 C   0  0  0  0  0  0  0  0  0  0  0  0
   13.2377   -9.9895    0.0000 C   0  0  0  0  0  0  0  0  0  0  0  0
   13.2630  -11.4941    0.0000 C   0  0  0  0  0  0  0  0  0  0  0  0
   14.5690  -12.2179    0.0000 C   0  0  0  0  0  0  0  0  0  0  0  0
   11.9261   -4.7177    0.0000 N   0  0  0  0  0  0  0  0  0  0  0  0
   11.9203   -3.2177    0.0000 O   0  0  0  0  0  0  0  0  0  0  0  0
 13 14  1  0  0  0  0
  2  3  2  0  0  0  0
 13 15  1  0  0  0  0
  6  8  1  0  0  0  0
 15 16  2  0  0  0  0
  4  5  2  0  0  0  0
 14 17  1  0  0  0  0
  8  9  2  0  0  0  0
 17 18  2  0  0  0  0
 17 19  1  0  0  0  0
 19 22  1  0  0  0  0
  9 10  1  0  0  0  0
  5  6  1  0  0  0  0
 20 21  1  0  0  0  0
 10 11  2  0  0  0  0
 21 22  2  0  0  0  0
  3  4  1  0  0  0  0
 22 23  1  0  0  0  0
 10 12  1  0  0  0  0
 23 24  2  0  0  0  0
  6  7  2  0  0  0  0
 24 25  1  0  0  0  0
 25 20  2  0  0  0  0
 25  1  1  0  0  0  0
 13 12  1  1  0  0  0
 15 26  1  0  0  0  0
  7  2  1  0  0  0  0
 26 27  1  0  0  0  0
M  END
> <Value>
3.7178312216953584

> <Relation>
=

> <SourceURI>
mol:CHEMBL595881

$$$$

Generated by Molecular Materials Informatics

 27 28  0  0  0  0  0  0  0  0999 V2000
   -8.9408  -20.1466    0.0000 C   0  0  0  0  0  0  0  0  0  0  0  0
   -8.9430  -21.6509    0.0000 C   0  0  0  0  0  0  0  0  0  0  0  0
   -7.6434  -22.4015    0.0000 C   0  0  0  0  0  0  0  0  0  0  0  0
   -6.3406  -21.6500    0.0000 C   0  0  0  0  0  0  0  0  0  0  0  0
   -6.3459  -20.1400    0.0000 C   0  0  0  0  0  0  0  0  0  0  0  0
   -7.6467  -19.3960    0.0000 C   0  0  0  0  0  0  0  0  0  0  0  0
   -5.0497  -19.3851    0.0000 C   0  0  0  0  0  0  0  0  0  0  0  0
   -3.7479  -20.1302    0.0000 C   0  0  0  0  0  0  0  0  0  0  0  0
   -2.4515  -19.3753    0.0000 C   0  0  0  0  0  0  0  0  0  0  0  0
   -2.4574  -17.8753    0.0000 O   0  0  0  0  0  0  0  0  0  0  0  0
   -1.1497  -20.1204    0.0000 N   0  0  0  0  0  0  0  0  0  0  0  0
    0.1465  -19.3655    0.0000 C   0  0  0  0  0  0  0  0  0  0  0  0
    1.4483  -20.1106    0.0000 C   0  0  0  0  0  0  0  0  0  0  0  0
    0.1408  -17.8654    0.0000 C   0  0  0  0  0  0  0  0  0  0  0  0
   -1.1610  -17.1204    0.0000 O   0  0  0  0  0  0  0  0  0  0  0  0
    2.7445  -19.3556    0.0000 C   0  0  0  0  0  0  0  0  0  0  0  0
    2.7389  -17.8556    0.0000 O   0  0  0  0  0  0  0  0  0  0  0  0
    4.0463  -20.1007    0.0000 N   0  0  0  0  0  0  0  0  0  0  0  0
    5.3463  -19.3525    0.0000 C   0  0  0  0  0  0  0  0  0  0  0  0
    6.6445  -20.1042    0.0000 C   0  0  0  0  0  0  0  0  0  0  0  0
    6.6381  -21.6031    0.0000 C   0  0  0  0  0  0  0  0  0  0  0  0
    7.9347  -22.3547    0.0000 C   0  0  0  0  0  0  0  0  0  0  0  0
    9.2365  -21.6064    0.0000 C   0  0  0  0  0  0  0  0  0  0  0  0
    9.2336  -20.0985    0.0000 C   0  0  0  0  0  0  0  0  0  0  0  0
    7.9360  -19.3538    0.0000 C   0  0  0  0  0  0  0  0  0  0  0  0
    1.4370  -17.1105    0.0000 N   0  0  0  0  0  0  0  0  0  0  0  0
    1.4314  -15.6105    0.0000 O   0  0  0  0  0  0  0  0  0  0  0  0
  1  2  2  0  0  0  0
 12 14  1  0  0  0  0
  5  7  1  0  0  0  0
 14 15  2  0  0  0  0
  3  4  2  0  0  0  0
 13 16  1  0  0  0  0
  7  8  2  0  0  0  0
 16 17  2  0  0  0  0
 16 18  1  0  0  0  0
  8  9  1  0  0  0  0
 18 19  1  0  0  0  0
  4  5  1  0  0  0  0
 19 20  1  0  0  0  0
  9 10  2  0  0  0  0
 20 21  2  0  0  0  0
  2  3  1  0  0  0  0
 21 22  1  0  0  0  0
  9 11  1  0  0  0  0
 22 23  2  0  0  0  0
  5  6  2  0  0  0  0
 23 24  1  0  0  0  0
 12 11  1  1  0  0  0
 24 25  2  0  0  0  0
 25 20  1  0  0  0  0
  6  1  1  0  0  0  0
 14 26  1  0  0  0  0
 12 13  1  0  0  0  0
 26 27  1  0  0  0  0
M  END
> <Value>
4.186419011431808

> <Relation>
=

> <SourceURI>
mol:CHEMBL594961

$$$$

Generated by Molecular Materials Informatics

 23 23  0  0  0  0  0  0  0  0999 V2000
    1.9202    1.5867    0.0000 C   0  0  0  0  0  0  0  0  0  0  0  0
    1.9181    0.0826    0.0000 C   0  0  0  0  0  0  0  0  0  0  0  0
    3.2177   -0.6682    0.0000 C   0  0  0  0  0  0  0  0  0  0  0  0
    4.5204    0.0833    0.0000 C   0  0  0  0  0  0  0  0  0  0  0  0
    4.5152    1.5935    0.0000 C   0  0  0  0  0  0  0  0  0  0  0  0
    3.2144    2.3373    0.0000 C   0  0  0  0  0  0  0  0  0  0  0  0
    5.8114    2.3484    0.0000 C   0  0  0  0  0  0  0  0  0  0  0  0
    7.1132    1.6033    0.0000 C   0  0  0  0  0  0  0  0  0  0  0  0
    8.4095    2.3580    0.0000 C   0  0  0  0  0  0  0  0  0  0  0  0
    8.4037    3.8580    0.0000 O   0  0  0  0  0  0  0  0  0  0  0  0
    9.7114    1.6129    0.0000 N   0  0  0  0  0  0  0  0  0  0  0  0
   11.0076    2.3678    0.0000 C   0  0  0  0  0  0  0  0  0  0  0  0
   12.3094    1.6227    0.0000 C   0  0  0  0  0  0  0  0  0  0  0  0
   11.0019    3.8679    0.0000 C   0  0  0  0  0  0  0  0  0  0  0  0
    9.7001    4.6129    0.0000 O   0  0  0  0  0  0  0  0  0  0  0  0
   13.6056    2.3777    0.0000 C   0  0  0  0  0  0  0  0  0  0  0  0
   13.5999    3.8777    0.0000 O   0  0  0  0  0  0  0  0  0  0  0  0
   14.9074    1.6326    0.0000 N   0  0  0  0  0  0  0  0  0  0  0  0
   14.9130    0.1326    0.0000 C   0  0  0  0  0  0  0  0  0  0  0  0
   16.2150   -0.6125    0.0000 C   0  0  0  0  0  0  0  0  0  0  0  0
   13.6168   -0.6224    0.0000 C   0  0  0  0  0  0  0  0  0  0  0  0
   12.2981    4.6228    0.0000 N   0  0  0  0  0  0  0  0  0  0  0  0
   12.2925    6.1228    0.0000 O   0  0  0  0  0  0  0  0  0  0  0  0
  5  6  2  0  0  0  0
 12 11  1  1  0  0  0
  6  1  1  0  0  0  0
 12 13  1  0  0  0  0
  1  2  2  0  0  0  0
 12 14  1  0  0  0  0
  5  7  1  0  0  0  0
 14 15  2  0  0  0  0
  3  4  2  0  0  0  0
 13 16  1  0  0  0  0
  7  8  2  0  0  0  0
 16 17  2  0  0  0  0
 16 18  1  0  0  0  0
  8  9  1  0  0  0  0
 18 19  1  0  0  0  0
  4  5  1  0  0  0  0
 19 20  1  0  0  0  0
  9 10  2  0  0  0  0
 19 21  1  0  0  0  0
  2  3  1  0  0  0  0
 14 22  1  0  0  0  0
  9 11  1  0  0  0  0
 22 23  1  0  0  0  0
M  END
> <Value>
4.18111458540599

> <Relation>
=

> <SourceURI>
mol:CHEMBL593795

$$$$

Generated by Molecular Materials Informatics

 24 24  0  0  0  0  0  0  0  0999 V2000
    2.2039   -0.6289    0.0000 C   0  0  0  0  0  0  0  0  0  0  0  0
    2.2019   -2.1333    0.0000 C   0  0  0  0  0  0  0  0  0  0  0  0
    3.5015   -2.8838    0.0000 C   0  0  0  0  0  0  0  0  0  0  0  0
    4.8041   -2.1324    0.0000 C   0  0  0  0  0  0  0  0  0  0  0  0
    4.7990   -0.6224    0.0000 C   0  0  0  0  0  0  0  0  0  0  0  0
    3.4983    0.1216    0.0000 C   0  0  0  0  0  0  0  0  0  0  0  0
    6.0952    0.1325    0.0000 C   0  0  0  0  0  0  0  0  0  0  0  0
    7.3970   -0.6126    0.0000 C   0  0  0  0  0  0  0  0  0  0  0  0
    8.6931    0.1423    0.0000 C   0  0  0  0  0  0  0  0  0  0  0  0
    8.6875    1.6423    0.0000 O   0  0  0  0  0  0  0  0  0  0  0  0
    9.9949   -0.6027    0.0000 N   0  0  0  0  0  0  0  0  0  0  0  0
   11.2913    0.1522    0.0000 C   0  0  0  0  0  0  0  0  0  0  0  0
   12.5931   -0.5929    0.0000 C   0  0  0  0  0  0  0  0  0  0  0  0
   11.2855    1.6521    0.0000 C   0  0  0  0  0  0  0  0  0  0  0  0
   12.5818    2.4071    0.0000 O   0  0  0  0  0  0  0  0  0  0  0  0
    9.9837    2.3972    0.0000 O   0  0  0  0  0  0  0  0  0  0  0  0
   13.8893    0.1620    0.0000 C   0  0  0  0  0  0  0  0  0  0  0  0
   13.8836    1.6620    0.0000 O   0  0  0  0  0  0  0  0  0  0  0  0
   15.1911   -0.5831    0.0000 N   0  0  0  0  0  0  0  0  0  0  0  0
   15.1967   -2.0831    0.0000 C   0  0  0  0  0  0  0  0  0  0  0  0
   16.4985   -2.8282    0.0000 C   0  0  0  0  0  0  0  0  0  0  0  0
   16.5042   -4.3282    0.0000 C   0  0  0  0  0  0  0  0  0  0  0  0
   17.8062   -5.0733    0.0000 C   0  0  0  0  0  0  0  0  0  0  0  0
   17.8118   -6.5733    0.0000 C   0  0  0  0  0  0  0  0  0  0  0  0
 12 11  1  1  0  0  0
  6  1  1  0  0  0  0
 12 13  1  0  0  0  0
  1  2  2  0  0  0  0
 12 14  1  0  0  0  0
  5  7  1  0  0  0  0
 14 15  1  0  0  0  0
  3  4  2  0  0  0  0
 14 16  2  0  0  0  0
  7  8  2  0  0  0  0
 13 17  1  0  0  0  0
 17 18  2  0  0  0  0
  8  9  1  0  0  0  0
 17 19  1  0  0  0  0
  4  5  1  0  0  0  0
 19 20  1  0  0  0  0
  9 10  2  0  0  0  0
 20 21  1  0  0  0  0
  2  3  1  0  0  0  0
 21 22  1  0  0  0  0
  9 11  1  0  0  0  0
 22 23  1  0  0  0  0
  5  6  2  0  0  0  0
 23 24  1  0  0  0  0
M  END
> <Value>
3.6897316333675523

> <Relation>
=

> <SourceURI>
mol:CHEMBL594969

$$$$

Generated by Molecular Materials Informatics

 25 25  0  0  0  0  0  0  0  0999 V2000
    2.0332   -0.8289    0.0000 C   0  0  0  0  0  0  0  0  0  0  0  0
    2.0310   -2.3333    0.0000 C   0  0  0  0  0  0  0  0  0  0  0  0
    3.3308   -3.0838    0.0000 C   0  0  0  0  0  0  0  0  0  0  0  0
    4.6333   -2.3324    0.0000 C   0  0  0  0  0  0  0  0  0  0  0  0
    4.6281   -0.8224    0.0000 C   0  0  0  0  0  0  0  0  0  0  0  0
    3.3275   -0.0784    0.0000 C   0  0  0  0  0  0  0  0  0  0  0  0
    5.9244   -0.0675    0.0000 C   0  0  0  0  0  0  0  0  0  0  0  0
    7.2262   -0.8126    0.0000 C   0  0  0  0  0  0  0  0  0  0  0  0
    8.5224   -0.0577    0.0000 C   0  0  0  0  0  0  0  0  0  0  0  0
    8.5168    1.4423    0.0000 O   0  0  0  0  0  0  0  0  0  0  0  0
    9.8242   -0.8027    0.0000 N   0  0  0  0  0  0  0  0  0  0  0  0
   11.1204   -0.0478    0.0000 C   0  0  0  0  0  0  0  0  0  0  0  0
   12.4222   -0.7929    0.0000 C   0  0  0  0  0  0  0  0  0  0  0  0
   11.1148    1.4522    0.0000 C   0  0  0  0  0  0  0  0  0  0  0  0
    9.8130    2.1972    0.0000 O   0  0  0  0  0  0  0  0  0  0  0  0
   13.7186   -0.0380    0.0000 C   0  0  0  0  0  0  0  0  0  0  0  0
   13.7127    1.4620    0.0000 O   0  0  0  0  0  0  0  0  0  0  0  0
   15.0204   -0.7831    0.0000 N   0  0  0  0  0  0  0  0  0  0  0  0
   15.0260   -2.2831    0.0000 C   0  0  0  0  0  0  0  0  0  0  0  0
   16.3278   -3.0282    0.0000 C   0  0  0  0  0  0  0  0  0  0  0  0
   16.3335   -4.5282    0.0000 C   0  0  0  0  0  0  0  0  0  0  0  0
   17.6353   -5.2733    0.0000 C   0  0  0  0  0  0  0  0  0  0  0  0
   17.6409   -6.7732    0.0000 C   0  0  0  0  0  0  0  0  0  0  0  0
   12.4109    2.2071    0.0000 N   0  0  0  0  0  0  0  0  0  0  0  0
   12.4053    3.7070    0.0000 O   0  0  0  0  0  0  0  0  0  0  0  0
  6  1  1  0  0  0  0
 12 13  1  0  0  0  0
  1  2  2  0  0  0  0
 12 14  1  0  0  0  0
  5  7  1  0  0  0  0
 14 15  2  0  0  0  0
  3  4  2  0  0  0  0
 13 16  1  0  0  0  0
  7  8  2  0  0  0  0
 16 17  2  0  0  0  0
 16 18  1  0  0  0  0
  8  9  1  0  0  0  0
 18 19  1  0  0  0  0
  4  5  1  0  0  0  0
 19 20  1  0  0  0  0
  9 10  2  0  0  0  0
 20 21  1  0  0  0  0
  2  3  1  0  0  0  0
 21 22  1  0  0  0  0
  9 11  1  0  0  0  0
 22 23  1  0  0  0  0
  5  6  2  0  0  0  0
 14 24  1  0  0  0  0
 12 11  1  1  0  0  0
 24 25  1  0  0  0  0
M  END
> <Value>
4.7594507517174005

> <Relation>
=

> <SourceURI>
mol:CHEMBL596560

$$$$

Generated by Molecular Materials Informatics

 27 28  0  0  0  0  0  0  0  0999 V2000
   -8.7297  -14.1827    0.0000 C   0  0  0  0  0  0  0  0  0  0  0  0
   -8.7319  -15.6871    0.0000 C   0  0  0  0  0  0  0  0  0  0  0  0
   -7.4323  -16.4378    0.0000 C   0  0  0  0  0  0  0  0  0  0  0  0
   -6.1295  -15.6862    0.0000 C   0  0  0  0  0  0  0  0  0  0  0  0
   -6.1348  -14.1761    0.0000 C   0  0  0  0  0  0  0  0  0  0  0  0
   -7.4355  -13.4323    0.0000 C   0  0  0  0  0  0  0  0  0  0  0  0
   -4.8386  -13.4212    0.0000 C   0  0  0  0  0  0  0  0  0  0  0  0
   -3.5367  -14.1663    0.0000 C   0  0  0  0  0  0  0  0  0  0  0  0
   -2.2404  -13.4114    0.0000 C   0  0  0  0  0  0  0  0  0  0  0  0
   -2.2462  -11.9114    0.0000 O   0  0  0  0  0  0  0  0  0  0  0  0
   -0.9385  -14.1565    0.0000 N   0  0  0  0  0  0  0  0  0  0  0  0
    0.3577  -13.4016    0.0000 C   0  0  0  0  0  0  0  0  0  0  0  0
    1.6595  -14.1467    0.0000 C   0  0  0  0  0  0  0  0  0  0  0  0
    0.3520  -11.9016    0.0000 C   0  0  0  0  0  0  0  0  0  0  0  0
   -0.9498  -11.1565    0.0000 O   0  0  0  0  0  0  0  0  0  0  0  0
    2.9557  -13.3919    0.0000 C   0  0  0  0  0  0  0  0  0  0  0  0
    2.9501  -11.8919    0.0000 O   0  0  0  0  0  0  0  0  0  0  0  0
    4.2576  -14.1370    0.0000 N   0  0  0  0  0  0  0  0  0  0  0  0
    5.5709  -17.8820    0.0000 C   0  0  0  0  0  0  0  0  0  0  0  0
    5.5529  -16.3833    0.0000 C   0  0  0  0  0  0  0  0  0  0  0  0
    4.2479  -15.6525    0.0000 C   0  0  0  0  0  0  0  0  0  0  0  0
    2.9601  -16.4187    0.0000 C   0  0  0  0  0  0  0  0  0  0  0  0
    2.9852  -17.9233    0.0000 C   0  0  0  0  0  0  0  0  0  0  0  0
    4.2912  -18.6471    0.0000 C   0  0  0  0  0  0  0  0  0  0  0  0
    6.8425  -15.6169    0.0000 Cl  0  0  0  0  0  0  0  0  0  0  0  0
    1.6482  -11.1468    0.0000 N   0  0  0  0  0  0  0  0  0  0  0  0
    1.6426   -9.6468    0.0000 O   0  0  0  0  0  0  0  0  0  0  0  0
  1  2  2  0  0  0  0
 12 14  1  0  0  0  0
  5  7  1  0  0  0  0
 14 15  2  0  0  0  0
  3  4  2  0  0  0  0
 13 16  1  0  0  0  0
  7  8  2  0  0  0  0
 16 17  2  0  0  0  0
 16 18  1  0  0  0  0
 18 21  1  0  0  0  0
  8  9  1  0  0  0  0
  4  5  1  0  0  0  0
 19 20  1  0  0  0  0
  9 10  2  0  0  0  0
 20 21  2  0  0  0  0
  2  3  1  0  0  0  0
 21 22  1  0  0  0  0
  9 11  1  0  0  0  0
 22 23  2  0  0  0  0
  5  6  2  0  0  0  0
 23 24  1  0  0  0  0
 24 19  2  0  0  0  0
 12 11  1  1  0  0  0
 20 25  1  0  0  0  0
  6  1  1  0  0  0  0
 14 26  1  0  0  0  0
 12 13  1  0  0  0  0
 26 27  1  0  0  0  0
M  END
> <Value>
4.062482107982653

> <Relation>
=

> <SourceURI>
mol:CHEMBL595446

$$$$

Generated by Molecular Materials Informatics

 26 27  0  0  0  0  0  0  0  0999 V2000
    3.0462  -20.4632    0.0000 C   0  0  0  0  0  0  0  0  0  0  0  0
    3.0441  -21.9674    0.0000 C   0  0  0  0  0  0  0  0  0  0  0  0
    4.3439  -22.7181    0.0000 C   0  0  0  0  0  0  0  0  0  0  0  0
    5.6464  -21.9667    0.0000 C   0  0  0  0  0  0  0  0  0  0  0  0
    5.6411  -20.4565    0.0000 C   0  0  0  0  0  0  0  0  0  0  0  0
    4.3406  -19.7127    0.0000 C   0  0  0  0  0  0  0  0  0  0  0  0
    6.9375  -19.7016    0.0000 C   0  0  0  0  0  0  0  0  0  0  0  0
    8.2393  -20.4467    0.0000 C   0  0  0  0  0  0  0  0  0  0  0  0
    9.5355  -19.6920    0.0000 C   0  0  0  0  0  0  0  0  0  0  0  0
    9.5298  -18.1920    0.0000 O   0  0  0  0  0  0  0  0  0  0  0  0
   10.8373  -20.4371    0.0000 N   0  0  0  0  0  0  0  0  0  0  0  0
   12.1335  -19.6821    0.0000 C   0  0  0  0  0  0  0  0  0  0  0  0
   13.4353  -20.4272    0.0000 C   0  0  0  0  0  0  0  0  0  0  0  0
   12.1278  -18.1822    0.0000 C   0  0  0  0  0  0  0  0  0  0  0  0
   10.8260  -17.4371    0.0000 O   0  0  0  0  0  0  0  0  0  0  0  0
   14.7316  -19.6723    0.0000 C   0  0  0  0  0  0  0  0  0  0  0  0
   14.7258  -18.1723    0.0000 O   0  0  0  0  0  0  0  0  0  0  0  0
   16.0334  -20.4174    0.0000 N   0  0  0  0  0  0  0  0  0  0  0  0
   17.3334  -19.6691    0.0000 C   0  0  0  0  0  0  0  0  0  0  0  0
   18.6272  -20.4292    0.0000 C   0  0  0  0  0  0  0  0  0  0  0  0
   19.9263  -19.6821    0.0000 C   0  0  0  0  0  0  0  0  0  0  0  0
   19.9292  -18.1807    0.0000 C   0  0  0  0  0  0  0  0  0  0  0  0
   18.6220  -17.4293    0.0000 C   0  0  0  0  0  0  0  0  0  0  0  0
   17.3282  -18.1805    0.0000 C   0  0  0  0  0  0  0  0  0  0  0  0
   13.4240  -17.4273    0.0000 N   0  0  0  0  0  0  0  0  0  0  0  0
   13.4184  -15.9273    0.0000 O   0  0  0  0  0  0  0  0  0  0  0  0
 12 13  1  0  0  0  0
  1  2  2  0  0  0  0
 12 14  1  0  0  0  0
  5  7  1  0  0  0  0
 14 15  2  0  0  0  0
  3  4  2  0  0  0  0
 13 16  1  0  0  0  0
  7  8  2  0  0  0  0
 16 17  2  0  0  0  0
 16 18  1  0  0  0  0
  8  9  1  0  0  0  0
 18 19  1  0  0  0  0
  4  5  1  0  0  0  0
 19 20  2  0  0  0  0
  9 10  2  0  0  0  0
 20 21  1  0  0  0  0
  2  3  1  0  0  0  0
 21 22  2  0  0  0  0
  9 11  1  0  0  0  0
 22 23  1  0  0  0  0
  5  6  2  0  0  0  0
 23 24  2  0  0  0  0
 24 19  1  0  0  0  0
 12 11  1  1  0  0  0
 14 25  1  0  0  0  0
  6  1  1  0  0  0  0
 25 26  1  0  0  0  0
M  END
> <Value>
3.939302159646388

> <Relation>
=

> <SourceURI>
mol:CHEMBL594936

$$$$

Generated by Molecular Materials Informatics

 25 26  0  0  0  0  0  0  0  0999 V2000
    3.2170  -20.2632    0.0000 C   0  0  0  0  0  0  0  0  0  0  0  0
    3.2150  -21.7674    0.0000 C   0  0  0  0  0  0  0  0  0  0  0  0
    4.5146  -22.5182    0.0000 C   0  0  0  0  0  0  0  0  0  0  0  0
    5.8171  -21.7667    0.0000 C   0  0  0  0  0  0  0  0  0  0  0  0
    5.8120  -20.2565    0.0000 C   0  0  0  0  0  0  0  0  0  0  0  0
    4.5113  -19.5127    0.0000 C   0  0  0  0  0  0  0  0  0  0  0  0
    7.1082  -19.5016    0.0000 C   0  0  0  0  0  0  0  0  0  0  0  0
    8.4100  -20.2467    0.0000 C   0  0  0  0  0  0  0  0  0  0  0  0
    9.7062  -19.4920    0.0000 C   0  0  0  0  0  0  0  0  0  0  0  0
    9.7006  -17.9920    0.0000 O   0  0  0  0  0  0  0  0  0  0  0  0
   11.0080  -20.2371    0.0000 N   0  0  0  0  0  0  0  0  0  0  0  0
   12.3044  -19.4822    0.0000 C   0  0  0  0  0  0  0  0  0  0  0  0
   13.6062  -20.2272    0.0000 C   0  0  0  0  0  0  0  0  0  0  0  0
   12.2986  -17.9822    0.0000 C   0  0  0  0  0  0  0  0  0  0  0  0
   13.5950  -17.2272    0.0000 O   0  0  0  0  0  0  0  0  0  0  0  0
   10.9968  -17.2371    0.0000 O   0  0  0  0  0  0  0  0  0  0  0  0
   14.9024  -19.4723    0.0000 C   0  0  0  0  0  0  0  0  0  0  0  0
   14.8968  -17.9723    0.0000 O   0  0  0  0  0  0  0  0  0  0  0  0
   16.2042  -20.2174    0.0000 N   0  0  0  0  0  0  0  0  0  0  0  0
   17.5042  -19.4691    0.0000 C   0  0  0  0  0  0  0  0  0  0  0  0
   18.7982  -20.2292    0.0000 C   0  0  0  0  0  0  0  0  0  0  0  0
   20.0973  -19.4822    0.0000 C   0  0  0  0  0  0  0  0  0  0  0  0
   20.1000  -17.9807    0.0000 C   0  0  0  0  0  0  0  0  0  0  0  0
   18.7930  -17.2292    0.0000 C   0  0  0  0  0  0  0  0  0  0  0  0
   17.4991  -17.9805    0.0000 C   0  0  0  0  0  0  0  0  0  0  0  0
  6  1  1  0  0  0  0
 12 13  1  0  0  0  0
  1  2  2  0  0  0  0
 12 14  1  0  0  0  0
  5  7  1  0  0  0  0
 14 15  1  0  0  0  0
  3  4  2  0  0  0  0
 14 16  2  0  0  0  0
  7  8  2  0  0  0  0
 13 17  1  0  0  0  0
 17 18  2  0  0  0  0
  8  9  1  0  0  0  0
 17 19  1  0  0  0  0
  4  5  1  0  0  0  0
 19 20  1  0  0  0  0
  9 10  2  0  0  0  0
 20 21  2  0  0  0  0
  2  3  1  0  0  0  0
 21 22  1  0  0  0  0
  9 11  1  0  0  0  0
 22 23  2  0  0  0  0
  5  6  2  0  0  0  0
 23 24  1  0  0  0  0
 12 11  1  1  0  0  0
 24 25  2  0  0  0  0
 25 20  1  0  0  0  0
M  END
> <Value>
3.633763876281707

> <Relation>
=

> <SourceURI>
mol:CHEMBL608562

$$$$

Generated by Molecular Materials Informatics

 23 23  0  0  0  0  0  0  0  0999 V2000
   -8.0394    1.4784    0.0000 C   0  0  0  0  0  0  0  0  0  0  0  0
   -8.0414   -0.0259    0.0000 C   0  0  0  0  0  0  0  0  0  0  0  0
   -6.7418   -0.7765    0.0000 C   0  0  0  0  0  0  0  0  0  0  0  0
   -5.4392   -0.0250    0.0000 C   0  0  0  0  0  0  0  0  0  0  0  0
   -5.4443    1.4850    0.0000 C   0  0  0  0  0  0  0  0  0  0  0  0
   -6.7450    2.2290    0.0000 C   0  0  0  0  0  0  0  0  0  0  0  0
   -4.1481    2.2399    0.0000 C   0  0  0  0  0  0  0  0  0  0  0  0
   -2.8463    1.4948    0.0000 C   0  0  0  0  0  0  0  0  0  0  0  0
   -1.5502    2.2497    0.0000 C   0  0  0  0  0  0  0  0  0  0  0  0
   -1.5558    3.7497    0.0000 O   0  0  0  0  0  0  0  0  0  0  0  0
   -0.2483    1.5046    0.0000 N   0  0  0  0  0  0  0  0  0  0  0  0
    1.0480    2.2595    0.0000 C   0  0  0  0  0  0  0  0  0  0  0  0
    2.3498    1.5144    0.0000 C   0  0  0  0  0  0  0  0  0  0  0  0
    1.0422    3.7595    0.0000 C   0  0  0  0  0  0  0  0  0  0  0  0
   -0.2596    4.5046    0.0000 O   0  0  0  0  0  0  0  0  0  0  0  0
    3.6460    2.2693    0.0000 C   0  0  0  0  0  0  0  0  0  0  0  0
    3.6404    3.7693    0.0000 O   0  0  0  0  0  0  0  0  0  0  0  0
    4.9478    1.5243    0.0000 N   0  0  0  0  0  0  0  0  0  0  0  0
    4.9534    0.0243    0.0000 C   0  0  0  0  0  0  0  0  0  0  0  0
    6.2552   -0.7208    0.0000 C   0  0  0  0  0  0  0  0  0  0  0  0
    6.2609   -2.2208    0.0000 C   0  0  0  0  0  0  0  0  0  0  0  0
    2.3385    4.5144    0.0000 N   0  0  0  0  0  0  0  0  0  0  0  0
    2.3327    6.0144    0.0000 O   0  0  0  0  0  0  0  0  0  0  0  0
  5  6  2  0  0  0  0
 12 11  1  1  0  0  0
  6  1  1  0  0  0  0
 12 13  1  0  0  0  0
  1  2  2  0  0  0  0
 12 14  1  0  0  0  0
  5  7  1  0  0  0  0
 14 15  2  0  0  0  0
  3  4  2  0  0  0  0
 13 16  1  0  0  0  0
  7  8  2  0  0  0  0
 16 17  2  0  0  0  0
 16 18  1  0  0  0  0
  8  9  1  0  0  0  0
 18 19  1  0  0  0  0
  4  5  1  0  0  0  0
 19 20  1  0  0  0  0
  9 10  2  0  0  0  0
 20 21  1  0  0  0  0
  2  3  1  0  0  0  0
 14 22  1  0  0  0  0
  9 11  1  0  0  0  0
 22 23  1  0  0  0  0
M  END
> <Value>
4.443697499232712

> <Relation>
=

> <SourceURI>
mol:CHEMBL593542

$$$$

Generated by Molecular Materials Informatics

 24 24  0  0  0  0  0  0  0  0999 V2000
   -8.4531   -1.5081    0.0000 C   0  0  0  0  0  0  0  0  0  0  0  0
   -8.4553   -3.0123    0.0000 C   0  0  0  0  0  0  0  0  0  0  0  0
   -7.1555   -3.7630    0.0000 C   0  0  0  0  0  0  0  0  0  0  0  0
   -5.8529   -3.0116    0.0000 C   0  0  0  0  0  0  0  0  0  0  0  0
   -5.8582   -1.5014    0.0000 C   0  0  0  0  0  0  0  0  0  0  0  0
   -7.1587   -0.7576    0.0000 C   0  0  0  0  0  0  0  0  0  0  0  0
   -4.5618   -0.7465    0.0000 C   0  0  0  0  0  0  0  0  0  0  0  0
   -3.2600   -1.4916    0.0000 C   0  0  0  0  0  0  0  0  0  0  0  0
   -1.9638   -0.7368    0.0000 C   0  0  0  0  0  0  0  0  0  0  0  0
   -1.9695    0.7632    0.0000 O   0  0  0  0  0  0  0  0  0  0  0  0
   -0.6620   -1.4819    0.0000 N   0  0  0  0  0  0  0  0  0  0  0  0
    0.6342   -0.7270    0.0000 C   0  0  0  0  0  0  0  0  0  0  0  0
    1.9360   -1.4721    0.0000 C   0  0  0  0  0  0  0  0  0  0  0  0
    0.6285    0.7730    0.0000 C   0  0  0  0  0  0  0  0  0  0  0  0
   -0.6733    1.5181    0.0000 O   0  0  0  0  0  0  0  0  0  0  0  0
    3.2324   -0.7172    0.0000 C   0  0  0  0  0  0  0  0  0  0  0  0
    3.2265    0.7828    0.0000 O   0  0  0  0  0  0  0  0  0  0  0  0
    4.5342   -1.4623    0.0000 N   0  0  0  0  0  0  0  0  0  0  0  0
    4.5398   -2.9623    0.0000 C   0  0  0  0  0  0  0  0  0  0  0  0
    5.8416   -3.7074    0.0000 C   0  0  0  0  0  0  0  0  0  0  0  0
    5.8473   -5.2074    0.0000 C   0  0  0  0  0  0  0  0  0  0  0  0
    7.1491   -5.9525    0.0000 C   0  0  0  0  0  0  0  0  0  0  0  0
    1.9247    1.5279    0.0000 N   0  0  0  0  0  0  0  0  0  0  0  0
    1.9191    3.0279    0.0000 O   0  0  0  0  0  0  0  0  0  0  0  0
 12 11  1  1  0  0  0
  6  1  1  0  0  0  0
 12 13  1  0  0  0  0
  1  2  2  0  0  0  0
 12 14  1  0  0  0  0
  5  7  1  0  0  0  0
 14 15  2  0  0  0  0
  3  4  2  0  0  0  0
 13 16  1  0  0  0  0
  7  8  2  0  0  0  0
 16 17  2  0  0  0  0
 16 18  1  0  0  0  0
  8  9  1  0  0  0  0
 18 19  1  0  0  0  0
  4  5  1  0  0  0  0
 19 20  1  0  0  0  0
  9 10  2  0  0  0  0
 20 21  1  0  0  0  0
  2  3  1  0  0  0  0
 21 22  1  0  0  0  0
  9 11  1  0  0  0  0
 14 23  1  0  0  0  0
  5  6  2  0  0  0  0
 23 24  1  0  0  0  0
M  END
> <Value>
4.954677021213342

> <Relation>
=

> <SourceURI>
mol:CHEMBL596553

$$$$

Generated by Molecular Materials Informatics

 23 23  0  0  0  0  0  0  0  0999 V2000
   -8.2823   -1.3081    0.0000 C   0  0  0  0  0  0  0  0  0  0  0  0
   -8.2843   -2.8123    0.0000 C   0  0  0  0  0  0  0  0  0  0  0  0
   -6.9847   -3.5630    0.0000 C   0  0  0  0  0  0  0  0  0  0  0  0
   -5.6822   -2.8116    0.0000 C   0  0  0  0  0  0  0  0  0  0  0  0
   -5.6873   -1.3014    0.0000 C   0  0  0  0  0  0  0  0  0  0  0  0
   -6.9880   -0.5576    0.0000 C   0  0  0  0  0  0  0  0  0  0  0  0
   -4.3911   -0.5465    0.0000 C   0  0  0  0  0  0  0  0  0  0  0  0
   -3.0893   -1.2916    0.0000 C   0  0  0  0  0  0  0  0  0  0  0  0
   -1.7931   -0.5369    0.0000 C   0  0  0  0  0  0  0  0  0  0  0  0
   -1.7987    0.9631    0.0000 O   0  0  0  0  0  0  0  0  0  0  0  0
   -0.4913   -1.2819    0.0000 N   0  0  0  0  0  0  0  0  0  0  0  0
    0.8051   -0.5270    0.0000 C   0  0  0  0  0  0  0  0  0  0  0  0
    2.1069   -1.2721    0.0000 C   0  0  0  0  0  0  0  0  0  0  0  0
    0.7992    0.9730    0.0000 C   0  0  0  0  0  0  0  0  0  0  0  0
    2.0956    1.7279    0.0000 O   0  0  0  0  0  0  0  0  0  0  0  0
   -0.5026    1.7180    0.0000 O   0  0  0  0  0  0  0  0  0  0  0  0
    3.4030   -0.5172    0.0000 C   0  0  0  0  0  0  0  0  0  0  0  0
    3.3974    0.9828    0.0000 O   0  0  0  0  0  0  0  0  0  0  0  0
    4.7049   -1.2623    0.0000 N   0  0  0  0  0  0  0  0  0  0  0  0
    4.7105   -2.7623    0.0000 C   0  0  0  0  0  0  0  0  0  0  0  0
    6.0123   -3.5074    0.0000 C   0  0  0  0  0  0  0  0  0  0  0  0
    6.0179   -5.0074    0.0000 C   0  0  0  0  0  0  0  0  0  0  0  0
    7.3199   -5.7525    0.0000 C   0  0  0  0  0  0  0  0  0  0  0  0
  5  6  2  0  0  0  0
 12 11  1  1  0  0  0
  6  1  1  0  0  0  0
 12 13  1  0  0  0  0
  1  2  2  0  0  0  0
 12 14  1  0  0  0  0
  5  7  1  0  0  0  0
 14 15  1  0  0  0  0
  3  4  2  0  0  0  0
 14 16  2  0  0  0  0
  7  8  2  0  0  0  0
 13 17  1  0  0  0  0
 17 18  2  0  0  0  0
  8  9  1  0  0  0  0
 17 19  1  0  0  0  0
  4  5  1  0  0  0  0
 19 20  1  0  0  0  0
  9 10  2  0  0  0  0
 20 21  1  0  0  0  0
  2  3  1  0  0  0  0
 21 22  1  0  0  0  0
  9 11  1  0  0  0  0
 22 23  1  0  0  0  0
M  END
> <Value>
3.7219326691113372

> <Relation>
=

> <SourceURI>
mol:CHEMBL595871

$$$$

Generated by Molecular Materials Informatics

 26 26  0  0  0  0  0  0  0  0999 V2000
   -8.9348   -5.1280    0.0000 C   0  0  0  0  0  0  0  0  0  0  0  0
   -8.9369   -6.6322    0.0000 C   0  0  0  0  0  0  0  0  0  0  0  0
   -7.6371   -7.3829    0.0000 C   0  0  0  0  0  0  0  0  0  0  0  0
   -6.3346   -6.6314    0.0000 C   0  0  0  0  0  0  0  0  0  0  0  0
   -6.3399   -5.1213    0.0000 C   0  0  0  0  0  0  0  0  0  0  0  0
   -7.6404   -4.3774    0.0000 C   0  0  0  0  0  0  0  0  0  0  0  0
   -5.0435   -4.3663    0.0000 C   0  0  0  0  0  0  0  0  0  0  0  0
   -3.7417   -5.1114    0.0000 C   0  0  0  0  0  0  0  0  0  0  0  0
   -2.4455   -4.3567    0.0000 C   0  0  0  0  0  0  0  0  0  0  0  0
   -2.4512   -2.8567    0.0000 O   0  0  0  0  0  0  0  0  0  0  0  0
   -1.1437   -5.1018    0.0000 N   0  0  0  0  0  0  0  0  0  0  0  0
    0.1525   -4.3469    0.0000 C   0  0  0  0  0  0  0  0  0  0  0  0
    1.4543   -5.0920    0.0000 C   0  0  0  0  0  0  0  0  0  0  0  0
    0.1468   -2.8469    0.0000 C   0  0  0  0  0  0  0  0  0  0  0  0
   -1.1550   -2.1018    0.0000 O   0  0  0  0  0  0  0  0  0  0  0  0
    2.7506   -4.3371    0.0000 C   0  0  0  0  0  0  0  0  0  0  0  0
    2.7448   -2.8371    0.0000 O   0  0  0  0  0  0  0  0  0  0  0  0
    4.0524   -5.0822    0.0000 N   0  0  0  0  0  0  0  0  0  0  0  0
    4.0581   -6.5822    0.0000 C   0  0  0  0  0  0  0  0  0  0  0  0
    5.3599   -7.3272    0.0000 C   0  0  0  0  0  0  0  0  0  0  0  0
    5.3655   -8.8272    0.0000 C   0  0  0  0  0  0  0  0  0  0  0  0
    6.6673   -9.5723    0.0000 C   0  0  0  0  0  0  0  0  0  0  0  0
    6.6730  -11.0723    0.0000 C   0  0  0  0  0  0  0  0  0  0  0  0
    7.9749  -11.8174    0.0000 C   0  0  0  0  0  0  0  0  0  0  0  0
    1.4430   -2.0920    0.0000 N   0  0  0  0  0  0  0  0  0  0  0  0
    1.4374   -0.5920    0.0000 O   0  0  0  0  0  0  0  0  0  0  0  0
 12 13  1  0  0  0  0
  1  2  2  0  0  0  0
 12 14  1  0  0  0  0
  5  7  1  0  0  0  0
 14 15  2  0  0  0  0
  3  4  2  0  0  0  0
 13 16  1  0  0  0  0
  7  8  2  0  0  0  0
 16 17  2  0  0  0  0
 16 18  1  0  0  0  0
  8  9  1  0  0  0  0
 18 19  1  0  0  0  0
  4  5  1  0  0  0  0
 19 20  1  0  0  0  0
  9 10  2  0  0  0  0
 20 21  1  0  0  0  0
  2  3  1  0  0  0  0
 21 22  1  0  0  0  0
  9 11  1  0  0  0  0
 22 23  1  0  0  0  0
  5  6  2  0  0  0  0
 23 24  1  0  0  0  0
 12 11  1  1  0  0  0
 14 25  1  0  0  0  0
  6  1  1  0  0  0  0
 25 26  1  0  0  0  0
M  END
> <Value>
4.7423214251308154

> <Relation>
=

> <SourceURI>
mol:CHEMBL595209

$$$$

Generated by Molecular Materials Informatics

 29 30  0  0  0  0  0  0  0  0999 V2000
    0.1104  -25.2803    0.0000 C   0  0  0  0  0  0  0  0  0  0  0  0
    0.1082  -26.7847    0.0000 C   0  0  0  0  0  0  0  0  0  0  0  0
    1.4080  -27.5354    0.0000 C   0  0  0  0  0  0  0  0  0  0  0  0
    2.7106  -26.7838    0.0000 C   0  0  0  0  0  0  0  0  0  0  0  0
    2.7053  -25.2738    0.0000 C   0  0  0  0  0  0  0  0  0  0  0  0
    1.4047  -24.5300    0.0000 C   0  0  0  0  0  0  0  0  0  0  0  0
    4.0016  -24.5189    0.0000 C   0  0  0  0  0  0  0  0  0  0  0  0
    5.3035  -25.2640    0.0000 C   0  0  0  0  0  0  0  0  0  0  0  0
    6.5996  -24.5091    0.0000 C   0  0  0  0  0  0  0  0  0  0  0  0
    6.5940  -23.0091    0.0000 O   0  0  0  0  0  0  0  0  0  0  0  0
    7.9014  -25.2541    0.0000 N   0  0  0  0  0  0  0  0  0  0  0  0
    9.1976  -24.4992    0.0000 C   0  0  0  0  0  0  0  0  0  0  0  0
   10.4994  -25.2443    0.0000 C   0  0  0  0  0  0  0  0  0  0  0  0
    9.1920  -22.9993    0.0000 C   0  0  0  0  0  0  0  0  0  0  0  0
    7.8902  -22.2542    0.0000 O   0  0  0  0  0  0  0  0  0  0  0  0
   11.7958  -24.4896    0.0000 C   0  0  0  0  0  0  0  0  0  0  0  0
   11.7900  -22.9896    0.0000 O   0  0  0  0  0  0  0  0  0  0  0  0
   13.0976  -25.2347    0.0000 N   0  0  0  0  0  0  0  0  0  0  0  0
   14.3976  -24.4863    0.0000 C   0  0  0  0  0  0  0  0  0  0  0  0
   15.6914  -25.2465    0.0000 C   0  0  0  0  0  0  0  0  0  0  0  0
   16.9905  -24.4994    0.0000 C   0  0  0  0  0  0  0  0  0  0  0  0
   16.9934  -22.9978    0.0000 C   0  0  0  0  0  0  0  0  0  0  0  0
   15.6861  -22.2463    0.0000 C   0  0  0  0  0  0  0  0  0  0  0  0
   14.3923  -22.9978    0.0000 C   0  0  0  0  0  0  0  0  0  0  0  0
   18.2981  -22.2420    0.0000 N   0  3  0  0  0  0  0  0  0  0  0  0
   18.2981  -20.7420    0.0000 O   0  0  0  0  0  0  0  0  0  0  0  0
   19.5972  -22.9920    0.0000 O   0  5  0  0  0  0  0  0  0  0  0  0
   10.4882  -22.2445    0.0000 N   0  0  0  0  0  0  0  0  0  0  0  0
   10.4825  -20.7445    0.0000 O   0  0  0  0  0  0  0  0  0  0  0  0
  5  7  1  0  0  0  0
 14 15  2  0  0  0  0
  3  4  2  0  0  0  0
 13 16  1  0  0  0  0
  7  8  2  0  0  0  0
 16 17  2  0  0  0  0
 16 18  1  0  0  0  0
  8  9  1  0  0  0  0
 18 19  1  0  0  0  0
  4  5  1  0  0  0  0
 19 20  2  0  0  0  0
  9 10  2  0  0  0  0
 20 21  1  0  0  0  0
  2  3  1  0  0  0  0
 21 22  2  0  0  0  0
  9 11  1  0  0  0  0
 22 23  1  0  0  0  0
  5  6  2  0  0  0  0
 23 24  2  0  0  0  0
 24 19  1  0  0  0  0
 12 11  1  1  0  0  0
  6  1  1  0  0  0  0
 12 13  1  0  0  0  0
 25 26  2  0  0  0  0
 25 27  1  0  0  0  0
 22 25  1  0  0  0  0
  1  2  2  0  0  0  0
 14 28  1  0  0  0  0
 12 14  1  0  0  0  0
 28 29  1  0  0  0  0
M  CHG  2  25   1  27  -1
M  END
> <Value>
3.72330847115496

> <Relation>
=

> <SourceURI>
mol:CHEMBL593543

$$$$

Generated by Molecular Materials Informatics

 28 28  0  0  0  0  0  0  0  0999 V2000
    0.9793   -3.5228    0.0000 C   0  0  0  0  0  0  0  0  0  0  0  0
    0.9773   -5.0270    0.0000 C   0  0  0  0  0  0  0  0  0  0  0  0
    2.2770   -5.7777    0.0000 C   0  0  0  0  0  0  0  0  0  0  0  0
    3.5795   -5.0263    0.0000 C   0  0  0  0  0  0  0  0  0  0  0  0
    3.5744   -3.5161    0.0000 C   0  0  0  0  0  0  0  0  0  0  0  0
    2.2737   -2.7723    0.0000 C   0  0  0  0  0  0  0  0  0  0  0  0
    4.8706   -2.7612    0.0000 C   0  0  0  0  0  0  0  0  0  0  0  0
    6.1724   -3.5063    0.0000 C   0  0  0  0  0  0  0  0  0  0  0  0
    7.4686   -2.7516    0.0000 C   0  0  0  0  0  0  0  0  0  0  0  0
    7.4629   -1.2516    0.0000 O   0  0  0  0  0  0  0  0  0  0  0  0
    8.7704   -3.4967    0.0000 N   0  0  0  0  0  0  0  0  0  0  0  0
   10.0667   -2.7418    0.0000 C   0  0  0  0  0  0  0  0  0  0  0  0
   11.3685   -3.4868    0.0000 C   0  0  0  0  0  0  0  0  0  0  0  0
   10.0609   -1.2418    0.0000 C   0  0  0  0  0  0  0  0  0  0  0  0
    8.7591   -0.4967    0.0000 O   0  0  0  0  0  0  0  0  0  0  0  0
   12.6647   -2.7319    0.0000 C   0  0  0  0  0  0  0  0  0  0  0  0
   12.6591   -1.2319    0.0000 O   0  0  0  0  0  0  0  0  0  0  0  0
   13.9665   -3.4770    0.0000 N   0  0  0  0  0  0  0  0  0  0  0  0
   13.9721   -4.9770    0.0000 C   0  0  0  0  0  0  0  0  0  0  0  0
   15.2740   -5.7221    0.0000 C   0  0  0  0  0  0  0  0  0  0  0  0
   15.2796   -7.2221    0.0000 C   0  0  0  0  0  0  0  0  0  0  0  0
   16.5816   -7.9672    0.0000 C   0  0  0  0  0  0  0  0  0  0  0  0
   16.5872   -9.4672    0.0000 C   0  0  0  0  0  0  0  0  0  0  0  0
   17.8890  -10.2123    0.0000 C   0  0  0  0  0  0  0  0  0  0  0  0
   17.8947  -11.7122    0.0000 C   0  0  0  0  0  0  0  0  0  0  0  0
   19.1965  -12.4573    0.0000 C   0  0  0  0  0  0  0  0  0  0  0  0
   11.3573   -0.4869    0.0000 N   0  0  0  0  0  0  0  0  0  0  0  0
   11.3514    1.0131    0.0000 O   0  0  0  0  0  0  0  0  0  0  0  0
 12 14  1  0  0  0  0
  5  7  1  0  0  0  0
 14 15  2  0  0  0  0
  3  4  2  0  0  0  0
 13 16  1  0  0  0  0
  7  8  2  0  0  0  0
 16 17  2  0  0  0  0
 16 18  1  0  0  0  0
  8  9  1  0  0  0  0
 18 19  1  0  0  0  0
  4  5  1  0  0  0  0
 19 20  1  0  0  0  0
  9 10  2  0  0  0  0
 20 21  1  0  0  0  0
  2  3  1  0  0  0  0
 21 22  1  0  0  0  0
  9 11  1  0  0  0  0
 22 23  1  0  0  0  0
  5  6  2  0  0  0  0
 23 24  1  0  0  0  0
 12 11  1  1  0  0  0
 24 25  1  0  0  0  0
  6  1  1  0  0  0  0
 25 26  1  0  0  0  0
 12 13  1  0  0  0  0
 14 27  1  0  0  0  0
  1  2  2  0  0  0  0
 27 28  1  0  0  0  0
M  END
> <Value>
4.732828271596986

> <Relation>
=

> <SourceURI>
mol:CHEMBL594848

$$$$

Generated by Molecular Materials Informatics

 28 29  0  0  0  0  0  0  0  0999 V2000
    0.2812  -25.4178    0.0000 C   0  0  0  0  0  0  0  0  0  0  0  0
    0.2792  -26.9222    0.0000 C   0  0  0  0  0  0  0  0  0  0  0  0
    1.5788  -27.6729    0.0000 C   0  0  0  0  0  0  0  0  0  0  0  0
    2.8813  -26.9213    0.0000 C   0  0  0  0  0  0  0  0  0  0  0  0
    2.8762  -25.4113    0.0000 C   0  0  0  0  0  0  0  0  0  0  0  0
    1.5755  -24.6675    0.0000 C   0  0  0  0  0  0  0  0  0  0  0  0
    4.1724  -24.6564    0.0000 C   0  0  0  0  0  0  0  0  0  0  0  0
    5.4742  -25.4015    0.0000 C   0  0  0  0  0  0  0  0  0  0  0  0
    6.7704  -24.6466    0.0000 C   0  0  0  0  0  0  0  0  0  0  0  0
    6.7648  -23.1466    0.0000 O   0  0  0  0  0  0  0  0  0  0  0  0
    8.0722  -25.3916    0.0000 N   0  0  0  0  0  0  0  0  0  0  0  0
    9.3686  -24.6367    0.0000 C   0  0  0  0  0  0  0  0  0  0  0  0
   10.6704  -25.3818    0.0000 C   0  0  0  0  0  0  0  0  0  0  0  0
    9.3627  -23.1368    0.0000 C   0  0  0  0  0  0  0  0  0  0  0  0
   10.6591  -22.3820    0.0000 O   0  0  0  0  0  0  0  0  0  0  0  0
    8.0609  -22.3917    0.0000 O   0  0  0  0  0  0  0  0  0  0  0  0
   11.9665  -24.6271    0.0000 C   0  0  0  0  0  0  0  0  0  0  0  0
   11.9609  -23.1271    0.0000 O   0  0  0  0  0  0  0  0  0  0  0  0
   13.2683  -25.3722    0.0000 N   0  0  0  0  0  0  0  0  0  0  0  0
   14.5683  -24.6238    0.0000 C   0  0  0  0  0  0  0  0  0  0  0  0
   15.8623  -25.3840    0.0000 C   0  0  0  0  0  0  0  0  0  0  0  0
   17.1614  -24.6369    0.0000 C   0  0  0  0  0  0  0  0  0  0  0  0
   17.1641  -23.1353    0.0000 C   0  0  0  0  0  0  0  0  0  0  0  0
   15.8570  -22.3839    0.0000 C   0  0  0  0  0  0  0  0  0  0  0  0
   14.5632  -23.1353    0.0000 C   0  0  0  0  0  0  0  0  0  0  0  0
   18.4688  -22.3795    0.0000 N   0  3  0  0  0  0  0  0  0  0  0  0
   18.4688  -20.8795    0.0000 O   0  0  0  0  0  0  0  0  0  0  0  0
   19.7679  -23.1295    0.0000 O   0  5  0  0  0  0  0  0  0  0  0  0
 12 14  1  0  0  0  0
  5  7  1  0  0  0  0
 14 15  1  0  0  0  0
  3  4  2  0  0  0  0
 14 16  2  0  0  0  0
  7  8  2  0  0  0  0
 13 17  1  0  0  0  0
 17 18  2  0  0  0  0
  8  9  1  0  0  0  0
 17 19  1  0  0  0  0
  4  5  1  0  0  0  0
 19 20  1  0  0  0  0
  9 10  2  0  0  0  0
 20 21  2  0  0  0  0
  2  3  1  0  0  0  0
 21 22  1  0  0  0  0
  9 11  1  0  0  0  0
 22 23  2  0  0  0  0
  5  6  2  0  0  0  0
 23 24  1  0  0  0  0
 12 11  1  1  0  0  0
 24 25  2  0  0  0  0
 25 20  1  0  0  0  0
  6  1  1  0  0  0  0
 12 13  1  0  0  0  0
  1  2  2  0  0  0  0
 26 27  2  0  0  0  0
 26 28  1  0  0  0  0
 23 26  1  0  0  0  0
M  CHG  2  26   1  28  -1
M  END
> <Value>
3.5636782998602667

> <Relation>
=

> <SourceURI>
mol:CHEMBL596098

$$$$

Generated by Molecular Materials Informatics

 26 27  0  0  0  0  0  0  0  0999 V2000
   -8.7701  -19.9465    0.0000 C   0  0  0  0  0  0  0  0  0  0  0  0
   -8.7722  -21.4509    0.0000 C   0  0  0  0  0  0  0  0  0  0  0  0
   -7.4724  -22.2015    0.0000 C   0  0  0  0  0  0  0  0  0  0  0  0
   -6.1699  -21.4500    0.0000 C   0  0  0  0  0  0  0  0  0  0  0  0
   -6.1751  -19.9400    0.0000 C   0  0  0  0  0  0  0  0  0  0  0  0
   -7.4757  -19.1960    0.0000 C   0  0  0  0  0  0  0  0  0  0  0  0
   -4.8788  -19.1851    0.0000 C   0  0  0  0  0  0  0  0  0  0  0  0
   -3.5769  -19.9302    0.0000 C   0  0  0  0  0  0  0  0  0  0  0  0
   -2.2807  -19.1753    0.0000 C   0  0  0  0  0  0  0  0  0  0  0  0
   -2.2864  -17.6753    0.0000 O   0  0  0  0  0  0  0  0  0  0  0  0
   -0.9789  -19.9204    0.0000 N   0  0  0  0  0  0  0  0  0  0  0  0
    0.3173  -19.1655    0.0000 C   0  0  0  0  0  0  0  0  0  0  0  0
    1.6191  -19.9105    0.0000 C   0  0  0  0  0  0  0  0  0  0  0  0
    0.3116  -17.6654    0.0000 C   0  0  0  0  0  0  0  0  0  0  0  0
    1.6078  -16.9105    0.0000 O   0  0  0  0  0  0  0  0  0  0  0  0
   -0.9902  -16.9203    0.0000 O   0  0  0  0  0  0  0  0  0  0  0  0
    2.9155  -19.1556    0.0000 C   0  0  0  0  0  0  0  0  0  0  0  0
    2.9097  -17.6556    0.0000 O   0  0  0  0  0  0  0  0  0  0  0  0
    4.2173  -19.9007    0.0000 N   0  0  0  0  0  0  0  0  0  0  0  0
    5.5173  -19.1525    0.0000 C   0  0  0  0  0  0  0  0  0  0  0  0
    6.8153  -19.9042    0.0000 C   0  0  0  0  0  0  0  0  0  0  0  0
    6.8090  -21.4031    0.0000 C   0  0  0  0  0  0  0  0  0  0  0  0
    8.1055  -22.1547    0.0000 C   0  0  0  0  0  0  0  0  0  0  0  0
    9.4073  -21.4064    0.0000 C   0  0  0  0  0  0  0  0  0  0  0  0
    9.4044  -19.8985    0.0000 C   0  0  0  0  0  0  0  0  0  0  0  0
    8.1070  -19.1538    0.0000 C   0  0  0  0  0  0  0  0  0  0  0  0
 12 13  1  0  0  0  0
  1  2  2  0  0  0  0
 12 14  1  0  0  0  0
  5  7  1  0  0  0  0
 14 15  1  0  0  0  0
  3  4  2  0  0  0  0
 14 16  2  0  0  0  0
  7  8  2  0  0  0  0
 13 17  1  0  0  0  0
 17 18  2  0  0  0  0
  8  9  1  0  0  0  0
 17 19  1  0  0  0  0
  4  5  1  0  0  0  0
 19 20  1  0  0  0  0
  9 10  2  0  0  0  0
 20 21  1  0  0  0  0
  2  3  1  0  0  0  0
 21 22  2  0  0  0  0
  9 11  1  0  0  0  0
 22 23  1  0  0  0  0
  5  6  2  0  0  0  0
 23 24  2  0  0  0  0
 12 11  1  1  0  0  0
 24 25  1  0  0  0  0
  6  1  1  0  0  0  0
 25 26  2  0  0  0  0
 26 21  1  0  0  0  0
M  END
> <Value>
3.684449465578095

> <Relation>
=

> <SourceURI>
mol:CHEMBL607828

$$$$

Generated by Molecular Materials Informatics

 29 31  0  0  0  0  0  0  0  0999 V2000
   11.1252  -25.3585    0.0000 C   0  0  0  0  0  0  0  0  0  0  0  0
   11.1231  -26.8629    0.0000 C   0  0  0  0  0  0  0  0  0  0  0  0
   12.4227  -27.6135    0.0000 C   0  0  0  0  0  0  0  0  0  0  0  0
   13.7255  -26.8620    0.0000 C   0  0  0  0  0  0  0  0  0  0  0  0
   13.7202  -25.3520    0.0000 C   0  0  0  0  0  0  0  0  0  0  0  0
   12.4195  -24.6079    0.0000 C   0  0  0  0  0  0  0  0  0  0  0  0
   15.0164  -24.5970    0.0000 C   0  0  0  0  0  0  0  0  0  0  0  0
   16.3183  -25.3421    0.0000 C   0  0  0  0  0  0  0  0  0  0  0  0
   17.6147  -24.5872    0.0000 C   0  0  0  0  0  0  0  0  0  0  0  0
   17.6088  -23.0872    0.0000 O   0  0  0  0  0  0  0  0  0  0  0  0
   18.9165  -25.3323    0.0000 N   0  0  0  0  0  0  0  0  0  0  0  0
   20.2127  -24.5774    0.0000 C   0  0  0  0  0  0  0  0  0  0  0  0
   21.5146  -25.3225    0.0000 C   0  0  0  0  0  0  0  0  0  0  0  0
   20.2071  -23.0774    0.0000 C   0  0  0  0  0  0  0  0  0  0  0  0
   21.5033  -22.3224    0.0000 O   0  0  0  0  0  0  0  0  0  0  0  0
   18.9052  -22.3322    0.0000 O   0  0  0  0  0  0  0  0  0  0  0  0
   22.8108  -24.5676    0.0000 C   0  0  0  0  0  0  0  0  0  0  0  0
   22.8051  -23.0675    0.0000 O   0  0  0  0  0  0  0  0  0  0  0  0
   24.1126  -25.3127    0.0000 N   0  0  0  0  0  0  0  0  0  0  0  0
   25.4127  -24.5645    0.0000 C   0  0  0  0  0  0  0  0  0  0  0  0
   26.7067  -25.3245    0.0000 C   0  0  0  0  0  0  0  0  0  0  0  0
   28.0058  -24.5776    0.0000 C   0  0  0  0  0  0  0  0  0  0  0  0
   28.0085  -23.0759    0.0000 C   0  0  0  0  0  0  0  0  0  0  0  0
   25.4076  -23.0759    0.0000 C   0  0  0  0  0  0  0  0  0  0  0  0
   26.6963  -22.3299    0.0000 C   0  0  0  0  0  0  0  0  0  0  0  0
   26.6931  -20.8442    0.0000 C   0  0  0  0  0  0  0  0  0  0  0  0
   25.4021  -20.1027    0.0000 C   0  0  0  0  0  0  0  0  0  0  0  0
   24.1121  -20.8577    0.0000 C   0  0  0  0  0  0  0  0  0  0  0  0
   24.1219  -22.3410    0.0000 C   0  0  0  0  0  0  0  0  0  0  0  0
  5  7  1  0  0  0  0
 14 15  1  0  0  0  0
  3  4  2  0  0  0  0
 14 16  2  0  0  0  0
  7  8  2  0  0  0  0
 13 17  1  0  0  0  0
 17 18  2  0  0  0  0
  8  9  1  0  0  0  0
 17 19  1  0  0  0  0
  4  5  1  0  0  0  0
 19 20  1  0  0  0  0
  9 10  2  0  0  0  0
 20 21  2  0  0  0  0
  2  3  1  0  0  0  0
 21 22  1  0  0  0  0
  9 11  1  0  0  0  0
 22 23  2  0  0  0  0
 23 25  1  0  0  0  0
 24 20  1  0  0  0  0
  5  6  2  0  0  0  0
 12 11  1  1  0  0  0
 24 25  1  0  0  0  0
  6  1  1  0  0  0  0
 25 26  2  0  0  0  0
 12 13  1  0  0  0  0
 26 27  1  0  0  0  0
  1  2  2  0  0  0  0
 27 28  2  0  0  0  0
 12 14  1  0  0  0  0
 28 29  1  0  0  0  0
 29 24  2  0  0  0  0
M  END
> <Value>
3.1312380417879497

> <Relation>
=

> <SourceURI>
mol:CHEMBL604376

$$$$

Generated by Molecular Materials Informatics

 28 29  0  0  0  0  0  0  0  0999 V2000
   -9.4246  -25.1707    0.0000 C   0  0  0  0  0  0  0  0  0  0  0  0
   -9.4268  -26.6749    0.0000 C   0  0  0  0  0  0  0  0  0  0  0  0
   -8.1271  -27.4256    0.0000 C   0  0  0  0  0  0  0  0  0  0  0  0
   -6.8244  -26.6742    0.0000 C   0  0  0  0  0  0  0  0  0  0  0  0
   -6.8297  -25.1640    0.0000 C   0  0  0  0  0  0  0  0  0  0  0  0
   -8.1304  -24.4202    0.0000 C   0  0  0  0  0  0  0  0  0  0  0  0
   -5.5335  -24.4091    0.0000 C   0  0  0  0  0  0  0  0  0  0  0  0
   -4.2317  -25.1542    0.0000 C   0  0  0  0  0  0  0  0  0  0  0  0
   -2.9353  -24.3995    0.0000 C   0  0  0  0  0  0  0  0  0  0  0  0
   -2.9411  -22.8994    0.0000 O   0  0  0  0  0  0  0  0  0  0  0  0
   -1.6335  -25.1445    0.0000 N   0  0  0  0  0  0  0  0  0  0  0  0
   -0.3373  -24.3896    0.0000 C   0  0  0  0  0  0  0  0  0  0  0  0
    0.9645  -25.1347    0.0000 C   0  0  0  0  0  0  0  0  0  0  0  0
   -0.3429  -22.8896    0.0000 C   0  0  0  0  0  0  0  0  0  0  0  0
    0.9533  -22.1347    0.0000 O   0  0  0  0  0  0  0  0  0  0  0  0
   -1.6447  -22.1445    0.0000 O   0  0  0  0  0  0  0  0  0  0  0  0
    2.2607  -24.3798    0.0000 C   0  0  0  0  0  0  0  0  0  0  0  0
    2.2551  -22.8798    0.0000 O   0  0  0  0  0  0  0  0  0  0  0  0
    3.5625  -25.1249    0.0000 N   0  0  0  0  0  0  0  0  0  0  0  0
    4.8626  -24.3765    0.0000 C   0  0  0  0  0  0  0  0  0  0  0  0
    6.1566  -25.1367    0.0000 C   0  0  0  0  0  0  0  0  0  0  0  0
    7.4557  -24.3896    0.0000 C   0  0  0  0  0  0  0  0  0  0  0  0
    7.4584  -22.8882    0.0000 C   0  0  0  0  0  0  0  0  0  0  0  0
    6.1513  -22.1367    0.0000 C   0  0  0  0  0  0  0  0  0  0  0  0
    4.8575  -22.8880    0.0000 C   0  0  0  0  0  0  0  0  0  0  0  0
    6.1484  -20.6320    0.0000 N   0  3  0  0  0  0  0  0  0  0  0  0
    4.8476  -19.8849    0.0000 O   0  0  0  0  0  0  0  0  0  0  0  0
    7.4457  -19.8792    0.0000 O   0  5  0  0  0  0  0  0  0  0  0  0
 12 14  1  0  0  0  0
  5  7  1  0  0  0  0
 14 15  1  0  0  0  0
  3  4  2  0  0  0  0
 14 16  2  0  0  0  0
  7  8  2  0  0  0  0
 13 17  1  0  0  0  0
 17 18  2  0  0  0  0
  8  9  1  0  0  0  0
 17 19  1  0  0  0  0
  4  5  1  0  0  0  0
 19 20  1  0  0  0  0
  9 10  2  0  0  0  0
 20 21  2  0  0  0  0
  2  3  1  0  0  0  0
 21 22  1  0  0  0  0
  9 11  1  0  0  0  0
 22 23  2  0  0  0  0
  5  6  2  0  0  0  0
 23 24  1  0  0  0  0
 12 11  1  1  0  0  0
 24 25  2  0  0  0  0
 25 20  1  0  0  0  0
  6  1  1  0  0  0  0
 12 13  1  0  0  0  0
  1  2  2  0  0  0  0
 26 27  2  0  0  0  0
 26 28  1  0  0  0  0
 24 26  1  0  0  0  0
M  CHG  2  26   1  28  -1
M  END
> <Value>
2.7493360805367564

> <Relation>
=

> <SourceURI>
mol:CHEMBL596097

$$$$

Generated by Molecular Materials Informatics

 32 32  0  0  0  0  0  0  0  0999 V2000
  -10.2216   -7.1041    0.0000 C   0  0  0  0  0  0  0  0  0  0  0  0
  -10.2236   -8.6085    0.0000 C   0  0  0  0  0  0  0  0  0  0  0  0
   -8.9239   -9.3592    0.0000 C   0  0  0  0  0  0  0  0  0  0  0  0
   -7.6214   -8.6076    0.0000 C   0  0  0  0  0  0  0  0  0  0  0  0
   -7.6265   -7.0976    0.0000 C   0  0  0  0  0  0  0  0  0  0  0  0
   -8.9272   -6.3538    0.0000 C   0  0  0  0  0  0  0  0  0  0  0  0
   -6.3303   -6.3427    0.0000 C   0  0  0  0  0  0  0  0  0  0  0  0
   -5.0285   -7.0878    0.0000 C   0  0  0  0  0  0  0  0  0  0  0  0
   -3.7323   -6.3329    0.0000 C   0  0  0  0  0  0  0  0  0  0  0  0
   -3.7380   -4.8329    0.0000 O   0  0  0  0  0  0  0  0  0  0  0  0
   -2.4305   -7.0779    0.0000 N   0  0  0  0  0  0  0  0  0  0  0  0
   -1.1342   -6.3230    0.0000 C   0  0  0  0  0  0  0  0  0  0  0  0
    0.1676   -7.0681    0.0000 C   0  0  0  0  0  0  0  0  0  0  0  0
   -1.1400   -4.8231    0.0000 C   0  0  0  0  0  0  0  0  0  0  0  0
   -2.4418   -4.0780    0.0000 O   0  0  0  0  0  0  0  0  0  0  0  0
    1.4638   -6.3134    0.0000 C   0  0  0  0  0  0  0  0  0  0  0  0
    2.7656   -7.0585    0.0000 N   0  0  0  0  0  0  0  0  0  0  0  0
    2.7713   -8.5585    0.0000 C   0  0  0  0  0  0  0  0  0  0  0  0
    4.0731   -9.3036    0.0000 C   0  0  0  0  0  0  0  0  0  0  0  0
    4.0787  -10.8036    0.0000 C   0  0  0  0  0  0  0  0  0  0  0  0
    5.3807  -11.5486    0.0000 C   0  0  0  0  0  0  0  0  0  0  0  0
    5.3863  -13.0484    0.0000 C   0  0  0  0  0  0  0  0  0  0  0  0
    6.6881  -13.7937    0.0000 C   0  0  0  0  0  0  0  0  0  0  0  0
    6.6938  -15.2935    0.0000 C   0  0  0  0  0  0  0  0  0  0  0  0
    7.9956  -16.0386    0.0000 C   0  0  0  0  0  0  0  0  0  0  0  0
    8.0012  -17.5386    0.0000 C   0  0  0  0  0  0  0  0  0  0  0  0
    9.3032  -18.2837    0.0000 C   0  0  0  0  0  0  0  0  0  0  0  0
    9.3089  -19.7837    0.0000 C   0  0  0  0  0  0  0  0  0  0  0  0
   10.6107  -20.5288    0.0000 C   0  0  0  0  0  0  0  0  0  0  0  0
    0.1564   -4.0683    0.0000 N   0  0  0  0  0  0  0  0  0  0  0  0
    1.4582   -4.8134    0.0000 O   0  0  0  0  0  0  0  0  0  0  0  0
    0.1506   -2.5683    0.0000 O   0  0  0  0  0  0  0  0  0  0  0  0
 13 16  1  0  0  0  0
 16 31  2  0  0  0  0
  7  8  2  0  0  0  0
 16 17  1  0  0  0  0
 17 18  1  0  0  0  0
  8  9  1  0  0  0  0
 18 19  1  0  0  0  0
  4  5  1  0  0  0  0
 19 20  1  0  0  0  0
  9 10  2  0  0  0  0
 20 21  1  0  0  0  0
  2  3  1  0  0  0  0
 21 22  1  0  0  0  0
  9 11  1  0  0  0  0
 22 23  1  0  0  0  0
  5  6  2  0  0  0  0
 23 24  1  0  0  0  0
 12 11  1  1  0  0  0
 24 25  1  0  0  0  0
  6  1  1  0  0  0  0
 25 26  1  0  0  0  0
 12 13  1  0  0  0  0
 26 27  1  0  0  0  0
  1  2  2  0  0  0  0
 27 28  1  0  0  0  0
 12 14  1  0  0  0  0
 28 29  1  0  0  0  0
  5  7  1  0  0  0  0
 14 30  1  0  0  0  0
 14 15  2  0  0  0  0
  3  4  2  0  0  0  0
 30 32  1  0  0  0  0
M  END
> <Value>
3.3583276267753135

> <Relation>
=

> <SourceURI>
mol:CHEMBL593811

$$$$

Generated by Molecular Materials Informatics

 25 25  0  0  0  0  0  0  0  0999 V2000
   -8.7640   -4.9280    0.0000 C   0  0  0  0  0  0  0  0  0  0  0  0
   -8.7660   -6.4322    0.0000 C   0  0  0  0  0  0  0  0  0  0  0  0
   -7.4664   -7.1829    0.0000 C   0  0  0  0  0  0  0  0  0  0  0  0
   -6.1638   -6.4314    0.0000 C   0  0  0  0  0  0  0  0  0  0  0  0
   -6.1689   -4.9213    0.0000 C   0  0  0  0  0  0  0  0  0  0  0  0
   -7.4696   -4.1774    0.0000 C   0  0  0  0  0  0  0  0  0  0  0  0
   -4.8728   -4.1664    0.0000 C   0  0  0  0  0  0  0  0  0  0  0  0
   -3.5709   -4.9114    0.0000 C   0  0  0  0  0  0  0  0  0  0  0  0
   -2.2748   -4.1567    0.0000 C   0  0  0  0  0  0  0  0  0  0  0  0
   -2.2804   -2.6567    0.0000 O   0  0  0  0  0  0  0  0  0  0  0  0
   -0.9730   -4.9018    0.0000 N   0  0  0  0  0  0  0  0  0  0  0  0
    0.3234   -4.1469    0.0000 C   0  0  0  0  0  0  0  0  0  0  0  0
    1.6252   -4.8920    0.0000 C   0  0  0  0  0  0  0  0  0  0  0  0
    0.3176   -2.6469    0.0000 C   0  0  0  0  0  0  0  0  0  0  0  0
    1.6139   -1.8920    0.0000 O   0  0  0  0  0  0  0  0  0  0  0  0
   -0.9842   -1.9018    0.0000 O   0  0  0  0  0  0  0  0  0  0  0  0
    2.9214   -4.1371    0.0000 C   0  0  0  0  0  0  0  0  0  0  0  0
    2.9157   -2.6371    0.0000 O   0  0  0  0  0  0  0  0  0  0  0  0
    4.2232   -4.8822    0.0000 N   0  0  0  0  0  0  0  0  0  0  0  0
    4.2288   -6.3822    0.0000 C   0  0  0  0  0  0  0  0  0  0  0  0
    5.5306   -7.1272    0.0000 C   0  0  0  0  0  0  0  0  0  0  0  0
    5.5363   -8.6272    0.0000 C   0  0  0  0  0  0  0  0  0  0  0  0
    6.8383   -9.3723    0.0000 C   0  0  0  0  0  0  0  0  0  0  0  0
    6.8439  -10.8723    0.0000 C   0  0  0  0  0  0  0  0  0  0  0  0
    8.1457  -11.6174    0.0000 C   0  0  0  0  0  0  0  0  0  0  0  0
  6  1  1  0  0  0  0
 12 13  1  0  0  0  0
  1  2  2  0  0  0  0
 12 14  1  0  0  0  0
  5  7  1  0  0  0  0
 14 15  1  0  0  0  0
  3  4  2  0  0  0  0
 14 16  2  0  0  0  0
  7  8  2  0  0  0  0
 13 17  1  0  0  0  0
 17 18  2  0  0  0  0
  8  9  1  0  0  0  0
 17 19  1  0  0  0  0
  4  5  1  0  0  0  0
 19 20  1  0  0  0  0
  9 10  2  0  0  0  0
 20 21  1  0  0  0  0
  2  3  1  0  0  0  0
 21 22  1  0  0  0  0
  9 11  1  0  0  0  0
 22 23  1  0  0  0  0
  5  6  2  0  0  0  0
 23 24  1  0  0  0  0
 12 11  1  1  0  0  0
 24 25  1  0  0  0  0
M  END
> <Value>
3.411392195257313

> <Relation>
=

> <SourceURI>
mol:CHEMBL608563

$$$$

Generated by Molecular Materials Informatics

 27 27  0  0  0  0  0  0  0  0999 V2000
    1.1503   -3.3228    0.0000 C   0  0  0  0  0  0  0  0  0  0  0  0
    1.1481   -4.8270    0.0000 C   0  0  0  0  0  0  0  0  0  0  0  0
    2.4477   -5.5777    0.0000 C   0  0  0  0  0  0  0  0  0  0  0  0
    3.7504   -4.8263    0.0000 C   0  0  0  0  0  0  0  0  0  0  0  0
    3.7452   -3.3161    0.0000 C   0  0  0  0  0  0  0  0  0  0  0  0
    2.4444   -2.5723    0.0000 C   0  0  0  0  0  0  0  0  0  0  0  0
    5.0413   -2.5612    0.0000 C   0  0  0  0  0  0  0  0  0  0  0  0
    6.3431   -3.3063    0.0000 C   0  0  0  0  0  0  0  0  0  0  0  0
    7.6395   -2.5516    0.0000 C   0  0  0  0  0  0  0  0  0  0  0  0
    7.6337   -1.0516    0.0000 O   0  0  0  0  0  0  0  0  0  0  0  0
    8.9413   -3.2967    0.0000 N   0  0  0  0  0  0  0  0  0  0  0  0
   10.2375   -2.5418    0.0000 C   0  0  0  0  0  0  0  0  0  0  0  0
   11.5393   -3.2868    0.0000 C   0  0  0  0  0  0  0  0  0  0  0  0
   10.2318   -1.0418    0.0000 C   0  0  0  0  0  0  0  0  0  0  0  0
   11.5280   -0.2869    0.0000 O   0  0  0  0  0  0  0  0  0  0  0  0
    8.9300   -0.2967    0.0000 O   0  0  0  0  0  0  0  0  0  0  0  0
   12.8355   -2.5319    0.0000 C   0  0  0  0  0  0  0  0  0  0  0  0
   12.8298   -1.0320    0.0000 O   0  0  0  0  0  0  0  0  0  0  0  0
   14.1373   -3.2770    0.0000 N   0  0  0  0  0  0  0  0  0  0  0  0
   14.1429   -4.7770    0.0000 C   0  0  0  0  0  0  0  0  0  0  0  0
   15.4449   -5.5221    0.0000 C   0  0  0  0  0  0  0  0  0  0  0  0
   15.4505   -7.0221    0.0000 C   0  0  0  0  0  0  0  0  0  0  0  0
   16.7523   -7.7672    0.0000 C   0  0  0  0  0  0  0  0  0  0  0  0
   16.7580   -9.2672    0.0000 C   0  0  0  0  0  0  0  0  0  0  0  0
   18.0598  -10.0123    0.0000 C   0  0  0  0  0  0  0  0  0  0  0  0
   18.0654  -11.5122    0.0000 C   0  0  0  0  0  0  0  0  0  0  0  0
   19.3674  -12.2573    0.0000 C   0  0  0  0  0  0  0  0  0  0  0  0
  1  2  2  0  0  0  0
 12 14  1  0  0  0  0
  5  7  1  0  0  0  0
 14 15  1  0  0  0  0
  3  4  2  0  0  0  0
 14 16  2  0  0  0  0
  7  8  2  0  0  0  0
 13 17  1  0  0  0  0
 17 18  2  0  0  0  0
  8  9  1  0  0  0  0
 17 19  1  0  0  0  0
  4  5  1  0  0  0  0
 19 20  1  0  0  0  0
  9 10  2  0  0  0  0
 20 21  1  0  0  0  0
  2  3  1  0  0  0  0
 21 22  1  0  0  0  0
  9 11  1  0  0  0  0
 22 23  1  0  0  0  0
  5  6  2  0  0  0  0
 23 24  1  0  0  0  0
 12 11  1  1  0  0  0
 24 25  1  0  0  0  0
  6  1  1  0  0  0  0
 25 26  1  0  0  0  0
 12 13  1  0  0  0  0
 26 27  1  0  0  0  0
M  END
> <Value>
3.6341377845974447

> <Relation>
=

> <SourceURI>
mol:CHEMBL607980

$$$$

Generated by Molecular Materials Informatics

 30 32  0  0  0  0  0  0  0  0999 V2000
   13.8795   -3.7789    0.0000 C   0  0  0  0  0  0  0  0  0  0  0  0
   13.1398   -5.0838    0.0000 C   0  0  0  0  0  0  0  0  0  0  0  0
   11.6399   -5.0957    0.0000 C   0  0  0  0  0  0  0  0  0  0  0  0
   10.8794   -3.8027    0.0000 C   0  0  0  0  0  0  0  0  0  0  0  0
   11.6192   -2.4977    0.0000 C   0  0  0  0  0  0  0  0  0  0  0  0
   13.1192   -2.4858    0.0000 C   0  0  0  0  0  0  0  0  0  0  0  0
   15.3803   -3.7700    0.0000 N   0  3  0  0  0  0  0  0  0  0  0  0
   15.9870   -4.8053    0.0000 O   0  0  0  0  0  0  0  0  0  0  0  0
   15.9738   -2.7271    0.0000 O   0  5  0  0  0  0  0  0  0  0  0  0
    9.3787   -3.8167    0.0000 C   0  0  0  0  0  0  0  0  0  0  0  0
    8.7887   -4.8617    0.0000 O   0  0  0  0  0  0  0  0  0  0  0  0
    8.6154   -2.5245    0.0000 C   0  0  0  0  0  0  0  0  0  0  0  0
    7.1146   -2.5384    0.0000 C   0  0  0  0  0  0  0  0  0  0  0  0
    9.2053   -1.4795    0.0000 N   0  0  0  0  0  0  0  0  0  0  0  0
    6.5247   -3.5834    0.0000 O   0  0  0  0  0  0  0  0  0  0  0  0
    6.3513   -1.2462    0.0000 N   0  0  0  0  0  0  0  0  0  0  0  0
    4.8506   -1.2602    0.0000 C   0  0  0  0  0  0  0  0  0  0  0  0
    4.1100   -2.5656    0.0000 C   0  0  0  0  0  0  0  0  0  0  0  0
    4.7182   -3.6001    0.0000 O   0  0  0  0  0  0  0  0  0  0  0  0
    4.0872    0.0320    0.0000 C   0  0  0  0  0  0  0  0  0  0  0  0
    2.9100   -2.5755    0.0000 O   0  0  0  0  0  0  0  0  0  0  0  0
    2.5889    0.0182    0.0000 C   0  0  0  0  0  0  0  0  0  0  0  0
    1.7138    1.2033    0.0000 N   0  0  0  0  0  0  0  0  0  0  0  0
    1.7138   -1.2033    0.0000 C   0  0  0  0  0  0  0  0  0  0  0  0
    0.2917   -0.7475    0.0000 C   0  0  0  0  0  0  0  0  0  0  0  0
    0.2917    0.7475    0.0000 C   0  0  0  0  0  0  0  0  0  0  0  0
   -1.0028    1.5132    0.0000 C   0  0  0  0  0  0  0  0  0  0  0  0
   -2.3155    0.7475    0.0000 C   0  0  0  0  0  0  0  0  0  0  0  0
   -2.3155   -0.7475    0.0000 C   0  0  0  0  0  0  0  0  0  0  0  0
   -1.0028   -1.5132    0.0000 C   0  0  0  0  0  0  0  0  0  0  0  0
 13 15  2  0  0  0  0
 13 16  1  0  0  0  0
  7  8  2  0  0  0  0
 16 17  1  0  0  0  0
  7  9  1  0  0  0  0
 17 18  1  0  0  0  0
  1  7  1  0  0  0  0
 18 19  1  0  0  0  0
  4  5  1  0  0  0  0
 17 20  1  6  0  0  0
  4 10  1  0  0  0  0
 18 21  2  0  0  0  0
  2  3  1  0  0  0  0
 20 22  1  0  0  0  0
 22 23  1  0  0  0  0
 10 11  1  6  0  0  0
  5  6  2  0  0  0  0
 23 26  1  0  0  0  0
 25 24  1  0  0  0  0
 24 22  2  0  0  0  0
 10 12  1  0  0  0  0
  6  1  1  0  0  0  0
 25 26  2  0  0  0  0
 12 13  1  0  0  0  0
 26 27  1  0  0  0  0
  1  2  2  0  0  0  0
 27 28  2  0  0  0  0
 12 14  1  6  0  0  0
 28 29  1  0  0  0  0
  3  4  2  0  0  0  0
 29 30  2  0  0  0  0
 30 25  1  0  0  0  0
M  CHG  2   7   1   9  -1
M  END
> <Value>
3.7899491501248628

> <Relation>
=

> <SourceURI>
mol:CHEMBL496899

$$$$

Generated by Molecular Materials Informatics

 25 25  0  0  0  0  0  0  0  0999 V2000
    1.2990   -0.7500    0.0000 C   0  0  0  0  0  0  0  0  0  0  0  0
    0.0000   -1.5000    0.0000 C   0  0  0  0  0  0  0  0  0  0  0  0
   -1.2990   -0.7500    0.0000 C   0  0  0  0  0  0  0  0  0  0  0  0
   -1.2990    0.7500    0.0000 C   0  0  0  0  0  0  0  0  0  0  0  0
    0.0000    1.5000    0.0000 C   0  0  0  0  0  0  0  0  0  0  0  0
    1.2990    0.7500    0.0000 C   0  0  0  0  0  0  0  0  0  0  0  0
    2.5973   -1.5031    0.0000 N   0  3  0  0  0  0  0  0  0  0  0  0
    2.5956   -2.7031    0.0000 O   0  0  0  0  0  0  0  0  0  0  0  0
    3.6375   -0.9049    0.0000 O   0  5  0  0  0  0  0  0  0  0  0  0
   -2.5978    1.5022    0.0000 C   0  0  0  0  0  0  0  0  0  0  0  0
   -2.5958    2.7022    0.0000 O   0  0  0  0  0  0  0  0  0  0  0  0
   -3.8990    0.7543    0.0000 C   0  0  0  0  0  0  0  0  0  0  0  0
   -5.1978    1.5065    0.0000 C   0  0  0  0  0  0  0  0  0  0  0  0
   -3.9010   -0.4457    0.0000 N   0  0  0  0  0  0  0  0  0  0  0  0
   -5.1958    2.7065    0.0000 O   0  0  0  0  0  0  0  0  0  0  0  0
   -6.4990    0.7586    0.0000 N   0  0  0  0  0  0  0  0  0  0  0  0
   -7.7977    1.5108    0.0000 C   0  0  0  0  0  0  0  0  0  0  0  0
   -9.0990    0.7630    0.0000 C   0  0  0  0  0  0  0  0  0  0  0  0
  -10.3977    1.5151    0.0000 N   0  0  0  0  0  0  0  0  0  0  0  0
   -7.7983    3.0116    0.0000 C   0  0  0  0  0  0  0  0  0  0  0  0
   -9.1010   -0.4370    0.0000 O   0  0  0  0  0  0  0  0  0  0  0  0
   -9.0979    3.7624    0.0000 C   0  0  0  0  0  0  0  0  0  0  0  0
   -9.0984    4.9624    0.0000 C   0  0  0  0  0  0  0  0  0  0  0  0
  -10.1371    3.1623    0.0000 C   0  0  0  0  0  0  0  0  0  0  0  0
  -11.4381    0.9172    0.0000 O   0  0  0  0  0  0  0  0  0  0  0  0
  6  1  1  0  0  0  0
 12 13  1  0  0  0  0
  1  2  2  0  0  0  0
 12 14  1  1  0  0  0
  3  4  2  0  0  0  0
 13 15  2  0  0  0  0
 13 16  1  0  0  0  0
  7  8  2  0  0  0  0
 16 17  1  0  0  0  0
  7  9  1  0  0  0  0
 17 18  1  0  0  0  0
  1  7  1  0  0  0  0
 18 19  1  0  0  0  0
  4  5  1  0  0  0  0
 17 20  1  6  0  0  0
  4 10  1  0  0  0  0
 18 21  2  0  0  0  0
  2  3  1  0  0  0  0
 20 22  1  0  0  0  0
 10 11  1  1  0  0  0
 22 23  1  0  0  0  0
 22 24  1  0  0  0  0
  5  6  2  0  0  0  0
 10 12  1  0  0  0  0
 19 25  1  0  0  0  0
M  CHG  2   7   1   9  -1
M  END
> <Value>
4.267606240177032

> <Relation>
=

> <SourceURI>
mol:CHEMBL496900

$$$$

Generated by Molecular Materials Informatics

 28 29  0  0  0  0  0  0  0  0999 V2000
    1.2990   -0.7500    0.0000 C   0  0  0  0  0  0  0  0  0  0  0  0
    0.0000   -1.5000    0.0000 C   0  0  0  0  0  0  0  0  0  0  0  0
   -1.2990   -0.7500    0.0000 C   0  0  0  0  0  0  0  0  0  0  0  0
   -1.2990    0.7500    0.0000 C   0  0  0  0  0  0  0  0  0  0  0  0
    0.0000    1.5000    0.0000 C   0  0  0  0  0  0  0  0  0  0  0  0
    1.2990    0.7500    0.0000 C   0  0  0  0  0  0  0  0  0  0  0  0
    2.5973   -1.5031    0.0000 N   0  3  0  0  0  0  0  0  0  0  0  0
    2.5956   -2.7031    0.0000 O   0  0  0  0  0  0  0  0  0  0  0  0
    3.6375   -0.9049    0.0000 O   0  5  0  0  0  0  0  0  0  0  0  0
   -2.5978    1.5022    0.0000 C   0  0  0  0  0  0  0  0  0  0  0  0
   -2.5958    2.7022    0.0000 O   0  0  0  0  0  0  0  0  0  0  0  0
   -3.8990    0.7543    0.0000 C   0  0  0  0  0  0  0  0  0  0  0  0
   -5.1978    1.5065    0.0000 C   0  0  0  0  0  0  0  0  0  0  0  0
   -3.9010   -0.4457    0.0000 N   0  0  0  0  0  0  0  0  0  0  0  0
   -5.1958    2.7065    0.0000 O   0  0  0  0  0  0  0  0  0  0  0  0
   -6.4990    0.7586    0.0000 N   0  0  0  0  0  0  0  0  0  0  0  0
   -7.7977    1.5108    0.0000 C   0  0  0  0  0  0  0  0  0  0  0  0
   -7.7983    3.0116    0.0000 C   0  0  0  0  0  0  0  0  0  0  0  0
   -9.0979    3.7624    0.0000 N   0  0  0  0  0  0  0  0  0  0  0  0
   -9.0990    0.7630    0.0000 C   0  0  0  0  0  0  0  0  0  0  0  0
   -6.7592    3.6117    0.0000 O   0  0  0  0  0  0  0  0  0  0  0  0
  -10.3977    1.5151    0.0000 C   0  0  0  0  0  0  0  0  0  0  0  0
  -11.6994    0.7696    0.0000 C   0  0  0  0  0  0  0  0  0  0  0  0
  -12.9959    1.5240    0.0000 C   0  0  0  0  0  0  0  0  0  0  0  0
  -12.9908    3.0240    0.0000 C   0  0  0  0  0  0  0  0  0  0  0  0
  -11.6892    3.7696    0.0000 C   0  0  0  0  0  0  0  0  0  0  0  0
  -10.3927    3.0152    0.0000 C   0  0  0  0  0  0  0  0  0  0  0  0
   -9.0984    4.9624    0.0000 O   0  0  0  0  0  0  0  0  0  0  0  0
 12 14  1  1  0  0  0
  3  4  2  0  0  0  0
 13 15  2  0  0  0  0
 13 16  1  0  0  0  0
  7  8  2  0  0  0  0
 16 17  1  0  0  0  0
  7  9  1  0  0  0  0
 17 18  1  0  0  0  0
  1  7  1  0  0  0  0
 18 19  1  0  0  0  0
  4  5  1  0  0  0  0
 17 20  1  1  0  0  0
  4 10  1  0  0  0  0
 18 21  2  0  0  0  0
  2  3  1  0  0  0  0
 20 22  1  0  0  0  0
 10 11  1  1  0  0  0
 22 23  2  0  0  0  0
  5  6  2  0  0  0  0
 23 24  1  0  0  0  0
 10 12  1  0  0  0  0
 24 25  2  0  0  0  0
  6  1  1  0  0  0  0
 25 26  1  0  0  0  0
 26 27  2  0  0  0  0
 27 22  1  0  0  0  0
 12 13  1  0  0  0  0
  1  2  2  0  0  0  0
 19 28  1  0  0  0  0
M  CHG  2   7   1   9  -1
M  END
> <Value>
4.504455662453552

> <Relation>
=

> <SourceURI>
mol:CHEMBL522903

$$$$

Generated by Molecular Materials Informatics

 35 36  0  0  0  0  0  0  0  0999 V2000
    1.2990   -0.7500    0.0000 C   0  0  0  0  0  0  0  0  0  0  0  0
    0.0000   -1.5000    0.0000 C   0  0  0  0  0  0  0  0  0  0  0  0
   -1.2990   -0.7500    0.0000 C   0  0  0  0  0  0  0  0  0  0  0  0
   -1.2990    0.7500    0.0000 C   0  0  0  0  0  0  0  0  0  0  0  0
    0.0000    1.5000    0.0000 C   0  0  0  0  0  0  0  0  0  0  0  0
    1.2990    0.7500    0.0000 C   0  0  0  0  0  0  0  0  0  0  0  0
    2.5973   -1.5031    0.0000 N   0  3  0  0  0  0  0  0  0  0  0  0
    2.5956   -2.7031    0.0000 O   0  0  0  0  0  0  0  0  0  0  0  0
    3.6375   -0.9049    0.0000 O   0  5  0  0  0  0  0  0  0  0  0  0
   -2.5998    1.4987    0.0000 C   0  0  0  0  0  0  0  0  0  0  0  0
   -3.6380    0.8969    0.0000 O   0  0  0  0  0  0  0  0  0  0  0  0
   -2.6028    2.9995    0.0000 C   0  0  0  0  0  0  0  0  0  0  0  0
   -3.9036    3.7481    0.0000 C   0  0  0  0  0  0  0  0  0  0  0  0
   -1.5646    3.6012    0.0000 N   0  0  0  0  0  0  0  0  0  0  0  0
   -4.9418    3.1464    0.0000 O   0  0  0  0  0  0  0  0  0  0  0  0
   -3.9066    5.2489    0.0000 N   0  0  0  0  0  0  0  0  0  0  0  0
   -5.2073    5.9976    0.0000 C   0  0  0  0  0  0  0  0  0  0  0  0
   -5.2103    7.4984    0.0000 C   0  0  0  0  0  0  0  0  0  0  0  0
   -6.5111    8.2471    0.0000 N   0  0  0  0  0  0  0  0  0  0  0  0
   -6.5043    5.2423    0.0000 C   0  0  0  0  0  0  0  0  0  0  0  0
   -4.1721    8.1002    0.0000 O   0  0  0  0  0  0  0  0  0  0  0  0
   -6.4996    3.7415    0.0000 C   0  0  0  0  0  0  0  0  0  0  0  0
   -7.5366    3.1377    0.0000 C   0  0  0  0  0  0  0  0  0  0  0  0
   -5.4584    3.1451    0.0000 C   0  0  0  0  0  0  0  0  0  0  0  0
   -6.5141    9.7479    0.0000 C   0  0  0  0  0  0  0  0  0  0  0  0
   -5.2171   10.5032    0.0000 C   0  0  0  0  0  0  0  0  0  0  0  0
   -7.8148   10.4965    0.0000 C   0  0  0  0  0  0  0  0  0  0  0  0
   -7.8178   11.9974    0.0000 C   0  0  0  0  0  0  0  0  0  0  0  0
   -9.1168   12.7475    0.0000 C   0  0  0  0  0  0  0  0  0  0  0  0
   -9.1167   14.2475    0.0000 C   0  0  0  0  0  0  0  0  0  0  0  0
   -7.8176   14.9975    0.0000 C   0  0  0  0  0  0  0  0  0  0  0  0
   -6.5186   14.2474    0.0000 C   0  0  0  0  0  0  0  0  0  0  0  0
   -6.5187   12.7474    0.0000 C   0  0  0  0  0  0  0  0  0  0  0  0
   -4.1758    9.9067    0.0000 O   0  0  0  0  0  0  0  0  0  0  0  0
   -5.2208   11.7031    0.0000 O   0  0  0  0  0  0  0  0  0  0  0  0
  7  9  1  0  0  0  0
 17 18  1  0  0  0  0
  1  7  1  0  0  0  0
 18 19  1  0  0  0  0
  4  5  1  0  0  0  0
 17 20  1  1  0  0  0
  4 10  1  0  0  0  0
 18 21  2  0  0  0  0
  2  3  1  0  0  0  0
 20 22  1  0  0  0  0
 10 11  1  6  0  0  0
 22 23  1  0  0  0  0
 22 24  1  0  0  0  0
  5  6  2  0  0  0  0
 10 12  1  0  0  0  0
 19 25  1  0  0  0  0
  6  1  1  0  0  0  0
 25 26  1  0  0  0  0
 12 13  1  0  0  0  0
 25 27  1  1  0  0  0
  1  2  2  0  0  0  0
 27 28  1  0  0  0  0
 12 14  1  6  0  0  0
 28 29  2  0  0  0  0
  3  4  2  0  0  0  0
 29 30  1  0  0  0  0
 13 15  2  0  0  0  0
 30 31  2  0  0  0  0
 31 32  1  0  0  0  0
 13 16  1  0  0  0  0
 32 33  2  0  0  0  0
 33 28  1  0  0  0  0
  7  8  2  0  0  0  0
 16 17  1  0  0  0  0
 26 34  1  0  0  0  0
 26 35  2  0  0  0  0
M  CHG  2   7   1   9  -1
M  END
> <Value>
4.460923901207224

> <Relation>
=

> <SourceURI>
mol:CHEMBL523914

$$$$

Generated by Molecular Materials Informatics

 38 40  0  0  0  0  0  0  0  0999 V2000
    1.2990   -0.7500    0.0000 C   0  0  0  0  0  0  0  0  0  0  0  0
    0.0000   -1.5000    0.0000 C   0  0  0  0  0  0  0  0  0  0  0  0
   -1.2990   -0.7500    0.0000 C   0  0  0  0  0  0  0  0  0  0  0  0
   -1.2990    0.7500    0.0000 C   0  0  0  0  0  0  0  0  0  0  0  0
    0.0000    1.5000    0.0000 C   0  0  0  0  0  0  0  0  0  0  0  0
    1.2990    0.7500    0.0000 C   0  0  0  0  0  0  0  0  0  0  0  0
    2.5973   -1.5031    0.0000 N   0  3  0  0  0  0  0  0  0  0  0  0
    2.5956   -2.7031    0.0000 O   0  0  0  0  0  0  0  0  0  0  0  0
    3.6375   -0.9049    0.0000 O   0  5  0  0  0  0  0  0  0  0  0  0
   -2.5998    1.4987    0.0000 C   0  0  0  0  0  0  0  0  0  0  0  0
   -3.6380    0.8969    0.0000 O   0  0  0  0  0  0  0  0  0  0  0  0
   -2.6028    2.9995    0.0000 C   0  0  0  0  0  0  0  0  0  0  0  0
   -3.9036    3.7481    0.0000 C   0  0  0  0  0  0  0  0  0  0  0  0
   -1.5646    3.6012    0.0000 N   0  0  0  0  0  0  0  0  0  0  0  0
   -4.9418    3.1464    0.0000 O   0  0  0  0  0  0  0  0  0  0  0  0
   -3.9066    5.2489    0.0000 N   0  0  0  0  0  0  0  0  0  0  0  0
   -5.2073    5.9976    0.0000 C   0  0  0  0  0  0  0  0  0  0  0  0
   -5.2103    7.4984    0.0000 C   0  0  0  0  0  0  0  0  0  0  0  0
   -6.5111    8.2471    0.0000 N   0  0  0  0  0  0  0  0  0  0  0  0
   -6.5043    5.2423    0.0000 C   0  0  0  0  0  0  0  0  0  0  0  0
   -4.1721    8.1002    0.0000 O   0  0  0  0  0  0  0  0  0  0  0  0
   -7.8073    5.9871    0.0000 C   0  0  0  0  0  0  0  0  0  0  0  0
   -6.5141    9.7479    0.0000 C   0  0  0  0  0  0  0  0  0  0  0  0
   -5.2171   10.5032    0.0000 C   0  0  0  0  0  0  0  0  0  0  0  0
   -7.8148   10.4965    0.0000 C   0  0  0  0  0  0  0  0  0  0  0  0
   -7.8178   11.9974    0.0000 C   0  0  0  0  0  0  0  0  0  0  0  0
   -9.1168   12.7475    0.0000 C   0  0  0  0  0  0  0  0  0  0  0  0
   -9.1167   14.2475    0.0000 C   0  0  0  0  0  0  0  0  0  0  0  0
   -7.8176   14.9975    0.0000 C   0  0  0  0  0  0  0  0  0  0  0  0
   -6.5186   14.2474    0.0000 C   0  0  0  0  0  0  0  0  0  0  0  0
   -6.5187   12.7474    0.0000 C   0  0  0  0  0  0  0  0  0  0  0  0
   -4.1758    9.9067    0.0000 O   0  0  0  0  0  0  0  0  0  0  0  0
   -5.2208   11.7031    0.0000 O   0  0  0  0  0  0  0  0  0  0  0  0
   -9.1047    5.2341    0.0000 C   0  0  0  0  0  0  0  0  0  0  0  0
  -10.4054    5.9811    0.0000 C   0  0  0  0  0  0  0  0  0  0  0  0
  -10.4089    7.4811    0.0000 C   0  0  0  0  0  0  0  0  0  0  0  0
   -9.1116    8.2341    0.0000 C   0  0  0  0  0  0  0  0  0  0  0  0
   -7.8108    7.4871    0.0000 C   0  0  0  0  0  0  0  0  0  0  0  0
 18 19  1  0  0  0  0
  4  5  1  0  0  0  0
 17 20  1  1  0  0  0
  4 10  1  0  0  0  0
 18 21  2  0  0  0  0
  2  3  1  0  0  0  0
 20 22  1  0  0  0  0
 10 11  1  6  0  0  0
 19 23  1  0  0  0  0
  5  6  2  0  0  0  0
 23 24  1  0  0  0  0
 10 12  1  0  0  0  0
 23 25  1  1  0  0  0
  6  1  1  0  0  0  0
 25 26  1  0  0  0  0
 12 13  1  0  0  0  0
 26 27  2  0  0  0  0
  1  2  2  0  0  0  0
 27 28  1  0  0  0  0
 12 14  1  6  0  0  0
 28 29  2  0  0  0  0
  3  4  2  0  0  0  0
 29 30  1  0  0  0  0
 13 15  2  0  0  0  0
 30 31  2  0  0  0  0
 31 26  1  0  0  0  0
 13 16  1  0  0  0  0
 24 32  1  0  0  0  0
 24 33  2  0  0  0  0
  7  8  2  0  0  0  0
 22 34  2  0  0  0  0
 16 17  1  0  0  0  0
 34 35  1  0  0  0  0
  7  9  1  0  0  0  0
 35 36  2  0  0  0  0
 17 18  1  0  0  0  0
 36 37  1  0  0  0  0
  1  7  1  0  0  0  0
 37 38  2  0  0  0  0
 38 22  1  0  0  0  0
M  CHG  2   7   1   9  -1
M  END
> <Value>
5.1487416512809245

> <Relation>
=

> <SourceURI>
mol:CHEMBL503327

$$$$

Generated by Molecular Materials Informatics

 16 16  0  0  0  0  0  0  0  0999 V2000
    1.2990   -0.7500    0.0000 C   0  0  0  0  0  0  0  0  0  0  0  0
    0.0000   -1.5000    0.0000 C   0  0  0  0  0  0  0  0  0  0  0  0
   -1.2990   -0.7500    0.0000 C   0  0  0  0  0  0  0  0  0  0  0  0
   -1.2990    0.7500    0.0000 C   0  0  0  0  0  0  0  0  0  0  0  0
    0.0000    1.5000    0.0000 C   0  0  0  0  0  0  0  0  0  0  0  0
    1.2990    0.7500    0.0000 C   0  0  0  0  0  0  0  0  0  0  0  0
    2.5973   -1.5031    0.0000 N   0  3  0  0  0  0  0  0  0  0  0  0
    2.5956   -2.7031    0.0000 O   0  0  0  0  0  0  0  0  0  0  0  0
    3.6375   -0.9049    0.0000 O   0  5  0  0  0  0  0  0  0  0  0  0
   -2.5998    1.4987    0.0000 C   0  0  0  0  0  0  0  0  0  0  0  0
   -3.6380    0.8969    0.0000 O   0  0  0  0  0  0  0  0  0  0  0  0
   -2.6028    2.9995    0.0000 C   0  0  0  0  0  0  0  0  0  0  0  0
   -3.9036    3.7481    0.0000 C   0  0  0  0  0  0  0  0  0  0  0  0
   -1.5646    3.6012    0.0000 N   0  0  0  0  0  0  0  0  0  0  0  0
   -4.9418    3.1464    0.0000 O   0  0  0  0  0  0  0  0  0  0  0  0
   -3.9060    4.9481    0.0000 O   0  0  0  0  0  0  0  0  0  0  0  0
  7  8  2  0  0  0  0
  7  9  1  0  0  0  0
  1  7  1  0  0  0  0
  4  5  1  0  0  0  0
  4 10  1  0  0  0  0
  2  3  1  0  0  0  0
 10 11  1  6  0  0  0
  5  6  2  0  0  0  0
 10 12  1  0  0  0  0
  6  1  1  0  0  0  0
 12 13  1  0  0  0  0
  1  2  2  0  0  0  0
 12 14  1  6  0  0  0
  3  4  2  0  0  0  0
 13 15  1  0  0  0  0
 13 16  2  0  0  0  0
M  CHG  2   7   1   9  -1
M  END
> <Value>
3.85325198636936

> <Relation>
=

> <SourceURI>
mol:CHEMBL497950

$$$$

Generated by Molecular Materials Informatics

 21 21  0  0  0  0  0  0  0  0999 V2000
    1.2990   -0.7500    0.0000 C   0  0  0  0  0  0  0  0  0  0  0  0
    0.0000   -1.5000    0.0000 C   0  0  0  0  0  0  0  0  0  0  0  0
   -1.2990   -0.7500    0.0000 C   0  0  0  0  0  0  0  0  0  0  0  0
   -1.2990    0.7500    0.0000 C   0  0  0  0  0  0  0  0  0  0  0  0
    0.0000    1.5000    0.0000 C   0  0  0  0  0  0  0  0  0  0  0  0
    1.2990    0.7500    0.0000 C   0  0  0  0  0  0  0  0  0  0  0  0
    2.5973   -1.5031    0.0000 N   0  3  0  0  0  0  0  0  0  0  0  0
    2.5956   -2.7031    0.0000 O   0  0  0  0  0  0  0  0  0  0  0  0
    3.6375   -0.9049    0.0000 O   0  5  0  0  0  0  0  0  0  0  0  0
   -2.5978    1.5022    0.0000 C   0  0  0  0  0  0  0  0  0  0  0  0
   -2.5958    2.7022    0.0000 O   0  0  0  0  0  0  0  0  0  0  0  0
   -3.8990    0.7543    0.0000 C   0  0  0  0  0  0  0  0  0  0  0  0
   -5.1978    1.5065    0.0000 C   0  0  0  0  0  0  0  0  0  0  0  0
   -3.9010   -0.4457    0.0000 N   0  0  0  0  0  0  0  0  0  0  0  0
   -5.1958    2.7065    0.0000 O   0  0  0  0  0  0  0  0  0  0  0  0
   -6.4990    0.7586    0.0000 N   0  0  0  0  0  0  0  0  0  0  0  0
   -7.7977    1.5108    0.0000 C   0  0  0  0  0  0  0  0  0  0  0  0
   -9.0990    0.7630    0.0000 C   0  0  0  0  0  0  0  0  0  0  0  0
  -10.3977    1.5151    0.0000 C   0  0  0  0  0  0  0  0  0  0  0  0
  -11.6990    0.7673    0.0000 C   0  0  0  0  0  0  0  0  0  0  0  0
  -12.7374    1.3687    0.0000 C   0  0  0  0  0  0  0  0  0  0  0  0
  2  3  1  0  0  0  0
 10 11  1  1  0  0  0
  5  6  2  0  0  0  0
 10 12  1  0  0  0  0
  6  1  1  0  0  0  0
 12 13  1  0  0  0  0
  1  2  2  0  0  0  0
 12 14  1  1  0  0  0
  3  4  2  0  0  0  0
 13 15  2  0  0  0  0
 13 16  1  0  0  0  0
  7  8  2  0  0  0  0
 16 17  1  0  0  0  0
  7  9  1  0  0  0  0
 17 18  1  0  0  0  0
  1  7  1  0  0  0  0
 18 19  1  0  0  0  0
  4  5  1  0  0  0  0
 19 20  1  0  0  0  0
  4 10  1  0  0  0  0
 20 21  1  0  0  0  0
M  CHG  2   7   1   9  -1
M  END
> <Value>
3.282579163277625

> <Relation>
=

> <SourceURI>
mol:CHEMBL499354

$$$$

Generated by Molecular Materials Informatics

 20 20  0  0  0  0  0  0  0  0999 V2000
    1.2990   -0.7500    0.0000 C   0  0  0  0  0  0  0  0  0  0  0  0
    0.0000   -1.5000    0.0000 C   0  0  0  0  0  0  0  0  0  0  0  0
   -1.2990   -0.7500    0.0000 C   0  0  0  0  0  0  0  0  0  0  0  0
   -1.2990    0.7500    0.0000 C   0  0  0  0  0  0  0  0  0  0  0  0
    0.0000    1.5000    0.0000 C   0  0  0  0  0  0  0  0  0  0  0  0
    1.2990    0.7500    0.0000 C   0  0  0  0  0  0  0  0  0  0  0  0
    2.5973   -1.5031    0.0000 N   0  3  0  0  0  0  0  0  0  0  0  0
    2.5956   -2.7031    0.0000 O   0  0  0  0  0  0  0  0  0  0  0  0
    3.6375   -0.9049    0.0000 O   0  5  0  0  0  0  0  0  0  0  0  0
   -2.5978    1.5022    0.0000 C   0  0  0  0  0  0  0  0  0  0  0  0
   -2.5958    2.7022    0.0000 O   0  0  0  0  0  0  0  0  0  0  0  0
   -3.8990    0.7543    0.0000 C   0  0  0  0  0  0  0  0  0  0  0  0
   -5.1978    1.5065    0.0000 C   0  0  0  0  0  0  0  0  0  0  0  0
   -3.9010   -0.4457    0.0000 N   0  0  0  0  0  0  0  0  0  0  0  0
   -5.1958    2.7065    0.0000 O   0  0  0  0  0  0  0  0  0  0  0  0
   -6.4990    0.7586    0.0000 N   0  0  0  0  0  0  0  0  0  0  0  0
   -7.7977    1.5108    0.0000 C   0  0  0  0  0  0  0  0  0  0  0  0
   -9.0990    0.7630    0.0000 C   0  0  0  0  0  0  0  0  0  0  0  0
  -10.3977    1.5151    0.0000 C   0  0  0  0  0  0  0  0  0  0  0  0
  -11.4381    0.9172    0.0000 C   0  0  0  0  0  0  0  0  0  0  0  0
  4 10  1  0  0  0  0
  2  3  1  0  0  0  0
 10 11  1  1  0  0  0
  5  6  2  0  0  0  0
 10 12  1  0  0  0  0
  6  1  1  0  0  0  0
 12 13  1  0  0  0  0
  1  2  2  0  0  0  0
 12 14  1  1  0  0  0
  3  4  2  0  0  0  0
 13 15  2  0  0  0  0
 13 16  1  0  0  0  0
  7  8  2  0  0  0  0
 16 17  1  0  0  0  0
  7  9  1  0  0  0  0
 17 18  1  0  0  0  0
  1  7  1  0  0  0  0
 18 19  1  0  0  0  0
  4  5  1  0  0  0  0
 19 20  1  0  0  0  0
M  CHG  2   7   1   9  -1
M  END
> <Value>
3.6333902896075703

> <Relation>
=

> <SourceURI>
mol:CHEMBL499340

$$$$

Generated by Molecular Materials Informatics

 27 29  0  0  0  0  0  0  0  0999 V2000
  -10.1559    9.7184    0.0000 C   0  0  0  0  0  0  0  0  0  0  0  0
  -10.1508    8.2184    0.0000 C   0  0  0  0  0  0  0  0  0  0  0  0
   -8.8493    7.4728    0.0000 C   0  0  0  0  0  0  0  0  0  0  0  0
   -7.5527    8.2271    0.0000 C   0  0  0  0  0  0  0  0  0  0  0  0
   -7.5578    9.7271    0.0000 C   0  0  0  0  0  0  0  0  0  0  0  0
   -8.8594   10.4727    0.0000 C   0  0  0  0  0  0  0  0  0  0  0  0
  -11.4566   10.4671    0.0000 N   0  3  0  0  0  0  0  0  0  0  0  0
  -11.4590   11.6671    0.0000 O   0  0  0  0  0  0  0  0  0  0  0  0
  -12.4949    9.8654    0.0000 O   0  5  0  0  0  0  0  0  0  0  0  0
   -6.2494    7.4828    0.0000 C   0  0  0  0  0  0  0  0  0  0  0  0
   -5.2132    8.0880    0.0000 O   0  0  0  0  0  0  0  0  0  0  0  0
   -6.2413    5.9820    0.0000 C   0  0  0  0  0  0  0  0  0  0  0  0
   -4.9380    5.2378    0.0000 C   0  0  0  0  0  0  0  0  0  0  0  0
   -7.2775    5.3768    0.0000 N   0  0  0  0  0  0  0  0  0  0  0  0
   -3.9019    5.8430    0.0000 O   0  0  0  0  0  0  0  0  0  0  0  0
   -4.9300    3.7369    0.0000 N   0  0  0  0  0  0  0  0  0  0  0  0
   -3.6267    2.9927    0.0000 C   0  0  0  0  0  0  0  0  0  0  0  0
   -3.6187    1.4919    0.0000 C   0  0  0  0  0  0  0  0  0  0  0  0
   -2.3155    0.7475    0.0000 C   0  0  0  0  0  0  0  0  0  0  0  0
   -2.3155   -0.7475    0.0000 C   0  0  0  0  0  0  0  0  0  0  0  0
   -1.0028   -1.5132    0.0000 C   0  0  0  0  0  0  0  0  0  0  0  0
   -1.0028    1.5132    0.0000 C   0  0  0  0  0  0  0  0  0  0  0  0
    0.2917    0.7475    0.0000 C   0  0  0  0  0  0  0  0  0  0  0  0
    0.2917   -0.7475    0.0000 C   0  0  0  0  0  0  0  0  0  0  0  0
    1.7138   -1.2033    0.0000 O   0  0  0  0  0  0  0  0  0  0  0  0
    2.5889    0.0182    0.0000 C   0  0  0  0  0  0  0  0  0  0  0  0
    1.7138    1.2033    0.0000 O   0  0  0  0  0  0  0  0  0  0  0  0
  1  2  2  0  0  0  0
 12 14  1  6  0  0  0
  3  4  2  0  0  0  0
 13 15  2  0  0  0  0
 13 16  1  0  0  0  0
  7  8  2  0  0  0  0
 16 17  1  0  0  0  0
  7  9  1  0  0  0  0
 17 18  1  0  0  0  0
  1  7  1  0  0  0  0
 18 19  1  0  0  0  0
  4  5  1  0  0  0  0
 19 20  2  0  0  0  0
  4 10  1  0  0  0  0
 20 21  1  0  0  0  0
 21 24  2  0  0  0  0
  2  3  1  0  0  0  0
 23 22  2  0  0  0  0
 22 19  1  0  0  0  0
 23 24  1  0  0  0  0
 10 11  1  6  0  0  0
  5  6  2  0  0  0  0
 10 12  1  0  0  0  0
  6  1  1  0  0  0  0
 12 13  1  0  0  0  0
 24 25  1  0  0  0  0
 25 26  1  0  0  0  0
 26 27  1  0  0  0  0
 27 23  1  0  0  0  0
M  CHG  2   7   1   9  -1
M  END
> <Value>
4.044312249686494

> <Relation>
=

> <SourceURI>
mol:CHEMBL498745

$$$$

Generated by Molecular Materials Informatics

 22 22  0  0  0  0  0  0  0  0999 V2000
    1.2990   -0.7500    0.0000 C   0  0  0  0  0  0  0  0  0  0  0  0
    0.0000   -1.5000    0.0000 C   0  0  0  0  0  0  0  0  0  0  0  0
   -1.2990   -0.7500    0.0000 C   0  0  0  0  0  0  0  0  0  0  0  0
   -1.2990    0.7500    0.0000 C   0  0  0  0  0  0  0  0  0  0  0  0
    0.0000    1.5000    0.0000 C   0  0  0  0  0  0  0  0  0  0  0  0
    1.2990    0.7500    0.0000 C   0  0  0  0  0  0  0  0  0  0  0  0
    2.5973   -1.5031    0.0000 N   0  3  0  0  0  0  0  0  0  0  0  0
    2.5956   -2.7031    0.0000 O   0  0  0  0  0  0  0  0  0  0  0  0
    3.6375   -0.9049    0.0000 O   0  5  0  0  0  0  0  0  0  0  0  0
   -2.5978    1.5022    0.0000 C   0  0  0  0  0  0  0  0  0  0  0  0
   -2.5958    2.7022    0.0000 O   0  0  0  0  0  0  0  0  0  0  0  0
   -3.8990    0.7543    0.0000 C   0  0  0  0  0  0  0  0  0  0  0  0
   -5.1978    1.5065    0.0000 C   0  0  0  0  0  0  0  0  0  0  0  0
   -3.9010   -0.4457    0.0000 N   0  0  0  0  0  0  0  0  0  0  0  0
   -5.1958    2.7065    0.0000 O   0  0  0  0  0  0  0  0  0  0  0  0
   -6.4990    0.7586    0.0000 N   0  0  0  0  0  0  0  0  0  0  0  0
   -7.7977    1.5108    0.0000 C   0  0  0  0  0  0  0  0  0  0  0  0
   -9.0990    0.7630    0.0000 C   0  0  0  0  0  0  0  0  0  0  0  0
  -10.3977    1.5151    0.0000 C   0  0  0  0  0  0  0  0  0  0  0  0
  -11.6990    0.7673    0.0000 C   0  0  0  0  0  0  0  0  0  0  0  0
  -11.7010   -0.4327    0.0000 O   0  0  0  0  0  0  0  0  0  0  0  0
  -12.7374    1.3687    0.0000 O   0  0  0  0  0  0  0  0  0  0  0  0
 10 11  1  1  0  0  0
  5  6  2  0  0  0  0
 10 12  1  0  0  0  0
  6  1  1  0  0  0  0
 12 13  1  0  0  0  0
  1  2  2  0  0  0  0
 12 14  1  1  0  0  0
  3  4  2  0  0  0  0
 13 15  2  0  0  0  0
 13 16  1  0  0  0  0
  7  8  2  0  0  0  0
 16 17  1  0  0  0  0
  7  9  1  0  0  0  0
 17 18  1  0  0  0  0
  1  7  1  0  0  0  0
 18 19  1  0  0  0  0
  4  5  1  0  0  0  0
 19 20  1  0  0  0  0
  4 10  1  0  0  0  0
  2  3  1  0  0  0  0
 20 21  1  0  0  0  0
 20 22  2  0  0  0  0
M  CHG  2   7   1   9  -1
M  END
> <Value>
2.5389218647831435

> <Relation>
=

> <SourceURI>
mol:CHEMBL497744

$$$$

Generated by Molecular Materials Informatics

 26 27  0  0  0  0  0  0  0  0999 V2000
   15.0396  -13.2654    0.0000 C   0  0  0  0  0  0  0  0  0  0  0  0
   15.0374  -14.7698    0.0000 C   0  0  0  0  0  0  0  0  0  0  0  0
   16.3372  -15.5204    0.0000 C   0  0  0  0  0  0  0  0  0  0  0  0
   17.6397  -14.7689    0.0000 C   0  0  0  0  0  0  0  0  0  0  0  0
   17.6345  -13.2589    0.0000 C   0  0  0  0  0  0  0  0  0  0  0  0
   16.3339  -12.5149    0.0000 C   0  0  0  0  0  0  0  0  0  0  0  0
   13.7390  -12.5162    0.0000 N   0  3  0  0  0  0  0  0  0  0  0  0
   12.4401  -13.2665    0.0000 O   0  0  0  0  0  0  0  0  0  0  0  0
   13.7387  -11.0162    0.0000 O   0  5  0  0  0  0  0  0  0  0  0  0
   18.9399  -15.5169    0.0000 C   0  0  0  0  0  0  0  0  0  0  0  0
   18.9423  -17.0169    0.0000 O   0  0  0  0  0  0  0  0  0  0  0  0
   20.2377  -14.7647    0.0000 C   0  0  0  0  0  0  0  0  0  0  0  0
   21.5381  -15.5127    0.0000 C   0  0  0  0  0  0  0  0  0  0  0  0
   20.2354  -13.2647    0.0000 N   0  0  0  0  0  0  0  0  0  0  0  0
   21.5405  -17.0127    0.0000 O   0  0  0  0  0  0  0  0  0  0  0  0
   22.8359  -14.7607    0.0000 N   0  0  0  0  0  0  0  0  0  0  0  0
   24.1361  -15.5087    0.0000 C   0  0  0  0  0  0  0  0  0  0  0  0
   25.4339  -14.7567    0.0000 C   0  0  0  0  0  0  0  0  0  0  0  0
   26.7341  -15.5045    0.0000 C   0  0  0  0  0  0  0  0  0  0  0  0
   26.7288  -17.0024    0.0000 C   0  0  0  0  0  0  0  0  0  0  0  0
   28.0276  -17.7502    0.0000 C   0  0  0  0  0  0  0  0  0  0  0  0
   29.3272  -16.9980    0.0000 C   0  0  0  0  0  0  0  0  0  0  0  0
   29.3199  -15.4902    0.0000 C   0  0  0  0  0  0  0  0  0  0  0  0
   28.0203  -14.7493    0.0000 C   0  0  0  0  0  0  0  0  0  0  0  0
   24.1385  -17.0087    0.0000 C   0  0  0  0  0  0  0  0  0  0  0  0
   22.8406  -17.7607    0.0000 O   0  0  0  0  0  0  0  0  0  0  0  0
 12 13  1  0  0  0  0
  1  2  2  0  0  0  0
 12 14  1  1  0  0  0
  3  4  2  0  0  0  0
 13 15  2  0  0  0  0
 13 16  1  0  0  0  0
  7  8  2  0  0  0  0
 16 17  1  0  0  0  0
  7  9  1  0  0  0  0
 17 18  1  0  0  0  0
  1  7  1  0  0  0  0
 18 19  1  0  0  0  0
  4  5  1  0  0  0  0
 19 20  2  0  0  0  0
  4 10  1  0  0  0  0
 20 21  1  0  0  0  0
  2  3  1  0  0  0  0
 21 22  2  0  0  0  0
 10 11  1  1  0  0  0
 22 23  1  0  0  0  0
  5  6  2  0  0  0  0
 23 24  2  0  0  0  0
 24 19  1  0  0  0  0
 10 12  1  0  0  0  0
 17 25  1  1  0  0  0
  6  1  1  0  0  0  0
 25 26  1  0  0  0  0
M  CHG  2   7   1   9  -1
M  END
> <Value>
3.9344202852715515

> <Relation>
=

> <SourceURI>
mol:CHEMBL498744

$$$$

Generated by Molecular Materials Informatics

 25 26  0  0  0  0  0  0  0  0999 V2000
    1.2990   -0.7500    0.0000 C   0  0  0  0  0  0  0  0  0  0  0  0
    0.0000   -1.5000    0.0000 C   0  0  0  0  0  0  0  0  0  0  0  0
   -1.2990   -0.7500    0.0000 C   0  0  0  0  0  0  0  0  0  0  0  0
   -1.2990    0.7500    0.0000 C   0  0  0  0  0  0  0  0  0  0  0  0
    0.0000    1.5000    0.0000 C   0  0  0  0  0  0  0  0  0  0  0  0
    1.2990    0.7500    0.0000 C   0  0  0  0  0  0  0  0  0  0  0  0
    2.5973   -1.5031    0.0000 N   0  3  0  0  0  0  0  0  0  0  0  0
    2.5956   -2.7031    0.0000 O   0  0  0  0  0  0  0  0  0  0  0  0
    3.6375   -0.9049    0.0000 O   0  5  0  0  0  0  0  0  0  0  0  0
   -2.5978    1.5022    0.0000 C   0  0  0  0  0  0  0  0  0  0  0  0
   -2.5958    2.7022    0.0000 O   0  0  0  0  0  0  0  0  0  0  0  0
   -3.8990    0.7543    0.0000 C   0  0  0  0  0  0  0  0  0  0  0  0
   -5.1978    1.5065    0.0000 C   0  0  0  0  0  0  0  0  0  0  0  0
   -3.9010   -0.4457    0.0000 N   0  0  0  0  0  0  0  0  0  0  0  0
   -5.1958    2.7065    0.0000 O   0  0  0  0  0  0  0  0  0  0  0  0
   -6.4990    0.7586    0.0000 N   0  0  0  0  0  0  0  0  0  0  0  0
   -7.7977    1.5108    0.0000 C   0  0  0  0  0  0  0  0  0  0  0  0
   -9.0990    0.7630    0.0000 C   0  0  0  0  0  0  0  0  0  0  0  0
  -10.3977    1.5151    0.0000 C   0  0  0  0  0  0  0  0  0  0  0  0
  -11.6994    0.7696    0.0000 C   0  0  0  0  0  0  0  0  0  0  0  0
  -12.9959    1.5240    0.0000 C   0  0  0  0  0  0  0  0  0  0  0  0
  -12.9908    3.0240    0.0000 C   0  0  0  0  0  0  0  0  0  0  0  0
  -11.6892    3.7696    0.0000 C   0  0  0  0  0  0  0  0  0  0  0  0
  -10.3927    3.0152    0.0000 C   0  0  0  0  0  0  0  0  0  0  0  0
  -14.0280    3.6275    0.0000 O   0  0  0  0  0  0  0  0  0  0  0  0
  6  1  1  0  0  0  0
 12 13  1  0  0  0  0
  1  2  2  0  0  0  0
 12 14  1  1  0  0  0
  3  4  2  0  0  0  0
 13 15  2  0  0  0  0
 13 16  1  0  0  0  0
  7  8  2  0  0  0  0
 16 17  1  0  0  0  0
  7  9  1  0  0  0  0
 17 18  1  0  0  0  0
  1  7  1  0  0  0  0
 18 19  1  0  0  0  0
  4  5  1  0  0  0  0
 19 20  2  0  0  0  0
  4 10  1  0  0  0  0
 20 21  1  0  0  0  0
  2  3  1  0  0  0  0
 21 22  2  0  0  0  0
 10 11  1  1  0  0  0
 22 23  1  0  0  0  0
  5  6  2  0  0  0  0
 23 24  2  0  0  0  0
 24 19  1  0  0  0  0
 10 12  1  0  0  0  0
 22 25  1  0  0  0  0
M  CHG  2   7   1   9  -1
M  END
> <Value>
4.289036881004725

> <Relation>
=

> <SourceURI>
mol:CHEMBL498743

$$$$

Generated by Molecular Materials Informatics

 25 26  0  0  0  0  0  0  0  0999 V2000
    1.2990   -0.7500    0.0000 C   0  0  0  0  0  0  0  0  0  0  0  0
    0.0000   -1.5000    0.0000 C   0  0  0  0  0  0  0  0  0  0  0  0
   -1.2990   -0.7500    0.0000 C   0  0  0  0  0  0  0  0  0  0  0  0
   -1.2990    0.7500    0.0000 C   0  0  0  0  0  0  0  0  0  0  0  0
    0.0000    1.5000    0.0000 C   0  0  0  0  0  0  0  0  0  0  0  0
    1.2990    0.7500    0.0000 C   0  0  0  0  0  0  0  0  0  0  0  0
    2.5973   -1.5031    0.0000 N   0  3  0  0  0  0  0  0  0  0  0  0
    2.5956   -2.7031    0.0000 O   0  0  0  0  0  0  0  0  0  0  0  0
    3.6375   -0.9049    0.0000 O   0  5  0  0  0  0  0  0  0  0  0  0
   -2.5978    1.5022    0.0000 C   0  0  0  0  0  0  0  0  0  0  0  0
   -2.5958    2.7022    0.0000 O   0  0  0  0  0  0  0  0  0  0  0  0
   -3.8990    0.7543    0.0000 C   0  0  0  0  0  0  0  0  0  0  0  0
   -5.1978    1.5065    0.0000 C   0  0  0  0  0  0  0  0  0  0  0  0
   -3.9010   -0.4457    0.0000 N   0  0  0  0  0  0  0  0  0  0  0  0
   -5.1958    2.7065    0.0000 O   0  0  0  0  0  0  0  0  0  0  0  0
   -6.4990    0.7586    0.0000 N   0  0  0  0  0  0  0  0  0  0  0  0
   -7.7977    1.5108    0.0000 C   0  0  0  0  0  0  0  0  0  0  0  0
   -9.0990    0.7630    0.0000 C   0  0  0  0  0  0  0  0  0  0  0  0
  -10.3977    1.5151    0.0000 C   0  0  0  0  0  0  0  0  0  0  0  0
  -11.6994    0.7696    0.0000 C   0  0  0  0  0  0  0  0  0  0  0  0
  -12.9959    1.5240    0.0000 C   0  0  0  0  0  0  0  0  0  0  0  0
  -12.9908    3.0240    0.0000 C   0  0  0  0  0  0  0  0  0  0  0  0
  -11.6892    3.7696    0.0000 C   0  0  0  0  0  0  0  0  0  0  0  0
  -10.3927    3.0152    0.0000 C   0  0  0  0  0  0  0  0  0  0  0  0
  -11.7035   -0.4304    0.0000 Cl  0  0  0  0  0  0  0  0  0  0  0  0
  6  1  1  0  0  0  0
 12 13  1  0  0  0  0
  1  2  2  0  0  0  0
 12 14  1  1  0  0  0
  3  4  2  0  0  0  0
 13 15  2  0  0  0  0
 13 16  1  0  0  0  0
  7  8  2  0  0  0  0
 16 17  1  0  0  0  0
  7  9  1  0  0  0  0
 17 18  1  0  0  0  0
  1  7  1  0  0  0  0
 18 19  1  0  0  0  0
  4  5  1  0  0  0  0
 19 20  2  0  0  0  0
  4 10  1  0  0  0  0
 20 21  1  0  0  0  0
  2  3  1  0  0  0  0
 21 22  2  0  0  0  0
 10 11  1  1  0  0  0
 22 23  1  0  0  0  0
  5  6  2  0  0  0  0
 23 24  2  0  0  0  0
 24 19  1  0  0  0  0
 10 12  1  0  0  0  0
 20 25  1  0  0  0  0
M  CHG  2   7   1   9  -1
M  END
> <Value>
3.8639139026159026

> <Relation>
=

> <SourceURI>
mol:CHEMBL498742

$$$$

Generated by Molecular Materials Informatics

 24 25  0  0  0  0  0  0  0  0999 V2000
    1.2990   -0.7500    0.0000 C   0  0  0  0  0  0  0  0  0  0  0  0
    0.0000   -1.5000    0.0000 C   0  0  0  0  0  0  0  0  0  0  0  0
   -1.2990   -0.7500    0.0000 C   0  0  0  0  0  0  0  0  0  0  0  0
   -1.2990    0.7500    0.0000 C   0  0  0  0  0  0  0  0  0  0  0  0
    0.0000    1.5000    0.0000 C   0  0  0  0  0  0  0  0  0  0  0  0
    1.2990    0.7500    0.0000 C   0  0  0  0  0  0  0  0  0  0  0  0
    2.5973   -1.5031    0.0000 N   0  3  0  0  0  0  0  0  0  0  0  0
    2.5956   -2.7031    0.0000 O   0  0  0  0  0  0  0  0  0  0  0  0
    3.6375   -0.9049    0.0000 O   0  5  0  0  0  0  0  0  0  0  0  0
   -2.5973    1.5031    0.0000 C   0  0  0  0  0  0  0  0  0  0  0  0
   -3.6375    0.9049    0.0000 O   0  0  0  0  0  0  0  0  0  0  0  0
   -2.5951    3.0039    0.0000 C   0  0  0  0  0  0  0  0  0  0  0  0
   -3.8933    3.7570    0.0000 C   0  0  0  0  0  0  0  0  0  0  0  0
   -1.5549    3.6021    0.0000 N   0  0  0  0  0  0  0  0  0  0  0  0
   -4.9336    3.1588    0.0000 O   0  0  0  0  0  0  0  0  0  0  0  0
   -3.8912    5.2578    0.0000 N   0  0  0  0  0  0  0  0  0  0  0  0
   -5.1894    6.0109    0.0000 C   0  0  0  0  0  0  0  0  0  0  0  0
   -5.1873    7.5117    0.0000 C   0  0  0  0  0  0  0  0  0  0  0  0
   -6.4855    8.2648    0.0000 C   0  0  0  0  0  0  0  0  0  0  0  0
   -6.4856    9.7648    0.0000 C   0  0  0  0  0  0  0  0  0  0  0  0
   -7.7846   10.5148    0.0000 C   0  0  0  0  0  0  0  0  0  0  0  0
   -9.0836    9.7649    0.0000 C   0  0  0  0  0  0  0  0  0  0  0  0
   -9.0837    8.2649    0.0000 C   0  0  0  0  0  0  0  0  0  0  0  0
   -7.7846    7.5148    0.0000 C   0  0  0  0  0  0  0  0  0  0  0  0
 10 12  1  0  0  0  0
  6  1  1  0  0  0  0
 12 13  1  0  0  0  0
  1  2  2  0  0  0  0
 12 14  1  6  0  0  0
  3  4  2  0  0  0  0
 13 15  2  0  0  0  0
 13 16  1  0  0  0  0
  7  8  2  0  0  0  0
 16 17  1  0  0  0  0
  7  9  1  0  0  0  0
 17 18  1  0  0  0  0
  1  7  1  0  0  0  0
 18 19  1  0  0  0  0
  4  5  1  0  0  0  0
 19 20  2  0  0  0  0
  4 10  1  0  0  0  0
 20 21  1  0  0  0  0
  2  3  1  0  0  0  0
 21 22  2  0  0  0  0
 10 11  1  6  0  0  0
 22 23  1  0  0  0  0
  5  6  2  0  0  0  0
 23 24  2  0  0  0  0
 24 19  1  0  0  0  0
M  CHG  2   7   1   9  -1
M  END
> <Value>
3.9734667354767033

> <Relation>
=

> <SourceURI>
mol:CHEMBL500242

$$$$

Generated by Molecular Materials Informatics

 25 26  0  0  0  0  0  0  0  0999 V2000
    1.2990   -0.7500    0.0000 C   0  0  0  0  0  0  0  0  0  0  0  0
    0.0000   -1.5000    0.0000 C   0  0  0  0  0  0  0  0  0  0  0  0
   -1.2990   -0.7500    0.0000 C   0  0  0  0  0  0  0  0  0  0  0  0
   -1.2990    0.7500    0.0000 C   0  0  0  0  0  0  0  0  0  0  0  0
    0.0000    1.5000    0.0000 C   0  0  0  0  0  0  0  0  0  0  0  0
    1.2990    0.7500    0.0000 C   0  0  0  0  0  0  0  0  0  0  0  0
    2.5973   -1.5031    0.0000 N   0  3  0  0  0  0  0  0  0  0  0  0
    2.5956   -2.7031    0.0000 O   0  0  0  0  0  0  0  0  0  0  0  0
    3.6375   -0.9049    0.0000 O   0  5  0  0  0  0  0  0  0  0  0  0
   -2.5978    1.5022    0.0000 C   0  0  0  0  0  0  0  0  0  0  0  0
   -2.5958    2.7022    0.0000 O   0  0  0  0  0  0  0  0  0  0  0  0
   -3.8990    0.7543    0.0000 C   0  0  0  0  0  0  0  0  0  0  0  0
   -5.1978    1.5065    0.0000 C   0  0  0  0  0  0  0  0  0  0  0  0
   -3.9010   -0.4457    0.0000 N   0  0  0  0  0  0  0  0  0  0  0  0
   -5.1958    2.7065    0.0000 O   0  0  0  0  0  0  0  0  0  0  0  0
   -6.4990    0.7586    0.0000 N   0  0  0  0  0  0  0  0  0  0  0  0
   -7.7977    1.5108    0.0000 C   0  0  0  0  0  0  0  0  0  0  0  0
   -9.0990    0.7630    0.0000 C   0  0  0  0  0  0  0  0  0  0  0  0
  -10.3981    1.5128    0.0000 C   0  0  0  0  0  0  0  0  0  0  0  0
  -11.6971    0.7628    0.0000 C   0  0  0  0  0  0  0  0  0  0  0  0
  -11.6970   -0.7372    0.0000 C   0  0  0  0  0  0  0  0  0  0  0  0
  -10.3980   -1.4872    0.0000 C   0  0  0  0  0  0  0  0  0  0  0  0
   -9.0990   -0.7371    0.0000 C   0  0  0  0  0  0  0  0  0  0  0  0
  -12.9952   -1.4904    0.0000 O   0  0  0  0  0  0  0  0  0  0  0  0
  -12.9934   -2.6904    0.0000 C   0  0  0  0  0  0  0  0  0  0  0  0
  6  1  1  0  0  0  0
 12 13  1  0  0  0  0
  1  2  2  0  0  0  0
 12 14  1  1  0  0  0
  3  4  2  0  0  0  0
 13 15  2  0  0  0  0
 13 16  1  0  0  0  0
  7  8  2  0  0  0  0
 16 17  1  0  0  0  0
  7  9  1  0  0  0  0
 17 18  1  0  0  0  0
  1  7  1  0  0  0  0
 18 19  2  0  0  0  0
  4  5  1  0  0  0  0
 19 20  1  0  0  0  0
  4 10  1  0  0  0  0
 20 21  2  0  0  0  0
  2  3  1  0  0  0  0
 21 22  1  0  0  0  0
 10 11  1  1  0  0  0
 22 23  2  0  0  0  0
 23 18  1  0  0  0  0
  5  6  2  0  0  0  0
 21 24  1  0  0  0  0
 10 12  1  0  0  0  0
 24 25  1  0  0  0  0
M  CHG  2   7   1   9  -1
M  END
> <Value>
3.8395314688809625

> <Relation>
=

> <SourceURI>
mol:CHEMBL499365

$$$$

Generated by Molecular Materials Informatics

 24 25  0  0  0  0  0  0  0  0999 V2000
    1.2990   -0.7500    0.0000 C   0  0  0  0  0  0  0  0  0  0  0  0
    0.0000   -1.5000    0.0000 C   0  0  0  0  0  0  0  0  0  0  0  0
   -1.2990   -0.7500    0.0000 C   0  0  0  0  0  0  0  0  0  0  0  0
   -1.2990    0.7500    0.0000 C   0  0  0  0  0  0  0  0  0  0  0  0
    0.0000    1.5000    0.0000 C   0  0  0  0  0  0  0  0  0  0  0  0
    1.2990    0.7500    0.0000 C   0  0  0  0  0  0  0  0  0  0  0  0
    2.5973   -1.5031    0.0000 N   0  3  0  0  0  0  0  0  0  0  0  0
    2.5956   -2.7031    0.0000 O   0  0  0  0  0  0  0  0  0  0  0  0
    3.6375   -0.9049    0.0000 O   0  5  0  0  0  0  0  0  0  0  0  0
   -2.5973    1.5031    0.0000 C   0  0  0  0  0  0  0  0  0  0  0  0
   -3.6375    0.9049    0.0000 O   0  0  0  0  0  0  0  0  0  0  0  0
   -2.5951    3.0039    0.0000 C   0  0  0  0  0  0  0  0  0  0  0  0
   -3.8933    3.7570    0.0000 C   0  0  0  0  0  0  0  0  0  0  0  0
   -1.5549    3.6021    0.0000 N   0  0  0  0  0  0  0  0  0  0  0  0
   -4.9336    3.1588    0.0000 O   0  0  0  0  0  0  0  0  0  0  0  0
   -3.8912    5.2578    0.0000 N   0  0  0  0  0  0  0  0  0  0  0  0
   -5.1894    6.0109    0.0000 C   0  0  0  0  0  0  0  0  0  0  0  0
   -5.1873    7.5117    0.0000 C   0  0  0  0  0  0  0  0  0  0  0  0
   -6.4837    8.2663    0.0000 C   0  0  0  0  0  0  0  0  0  0  0  0
   -6.4785    9.7663    0.0000 C   0  0  0  0  0  0  0  0  0  0  0  0
   -5.1769   10.5118    0.0000 C   0  0  0  0  0  0  0  0  0  0  0  0
   -3.8805    9.7573    0.0000 C   0  0  0  0  0  0  0  0  0  0  0  0
   -3.8856    8.2573    0.0000 C   0  0  0  0  0  0  0  0  0  0  0  0
   -5.1728   11.7118    0.0000 F   0  0  0  0  0  0  0  0  0  0  0  0
 10 12  1  0  0  0  0
  6  1  1  0  0  0  0
 12 13  1  0  0  0  0
  1  2  2  0  0  0  0
 12 14  1  6  0  0  0
  3  4  2  0  0  0  0
 13 15  2  0  0  0  0
 13 16  1  0  0  0  0
  7  8  2  0  0  0  0
 16 17  1  0  0  0  0
  7  9  1  0  0  0  0
 17 18  1  0  0  0  0
  1  7  1  0  0  0  0
 18 19  2  0  0  0  0
  4  5  1  0  0  0  0
 19 20  1  0  0  0  0
  4 10  1  0  0  0  0
 20 21  2  0  0  0  0
  2  3  1  0  0  0  0
 21 22  1  0  0  0  0
 10 11  1  6  0  0  0
 22 23  2  0  0  0  0
 23 18  1  0  0  0  0
  5  6  2  0  0  0  0
 21 24  1  0  0  0  0
M  CHG  2   7   1   9  -1
M  END
> <Value>
3.5192746210115122

> <Relation>
=

> <SourceURI>
mol:CHEMBL499087

$$$$

Generated by Molecular Materials Informatics

 23 24  0  0  0  0  0  0  0  0999 V2000
    1.2990   -0.7500    0.0000 C   0  0  0  0  0  0  0  0  0  0  0  0
    0.0000   -1.5000    0.0000 C   0  0  0  0  0  0  0  0  0  0  0  0
   -1.2990   -0.7500    0.0000 C   0  0  0  0  0  0  0  0  0  0  0  0
   -1.2990    0.7500    0.0000 C   0  0  0  0  0  0  0  0  0  0  0  0
    0.0000    1.5000    0.0000 C   0  0  0  0  0  0  0  0  0  0  0  0
    1.2990    0.7500    0.0000 C   0  0  0  0  0  0  0  0  0  0  0  0
    2.5973   -1.5031    0.0000 N   0  3  0  0  0  0  0  0  0  0  0  0
    2.5956   -2.7031    0.0000 O   0  0  0  0  0  0  0  0  0  0  0  0
    3.6375   -0.9049    0.0000 O   0  5  0  0  0  0  0  0  0  0  0  0
   -2.5973    1.5031    0.0000 C   0  0  0  0  0  0  0  0  0  0  0  0
   -3.6375    0.9049    0.0000 O   0  0  0  0  0  0  0  0  0  0  0  0
   -2.5951    3.0039    0.0000 C   0  0  0  0  0  0  0  0  0  0  0  0
   -3.8933    3.7570    0.0000 C   0  0  0  0  0  0  0  0  0  0  0  0
   -1.5549    3.6021    0.0000 N   0  0  0  0  0  0  0  0  0  0  0  0
   -4.9336    3.1588    0.0000 O   0  0  0  0  0  0  0  0  0  0  0  0
   -3.8912    5.2578    0.0000 N   0  0  0  0  0  0  0  0  0  0  0  0
   -5.1894    6.0109    0.0000 C   0  0  0  0  0  0  0  0  0  0  0  0
   -5.1873    7.5117    0.0000 C   0  0  0  0  0  0  0  0  0  0  0  0
   -6.4837    8.2663    0.0000 C   0  0  0  0  0  0  0  0  0  0  0  0
   -6.4785    9.7663    0.0000 C   0  0  0  0  0  0  0  0  0  0  0  0
   -5.1769   10.5118    0.0000 C   0  0  0  0  0  0  0  0  0  0  0  0
   -3.8805    9.7573    0.0000 C   0  0  0  0  0  0  0  0  0  0  0  0
   -3.8856    8.2573    0.0000 C   0  0  0  0  0  0  0  0  0  0  0  0
  5  6  2  0  0  0  0
 10 12  1  0  0  0  0
  6  1  1  0  0  0  0
 12 13  1  0  0  0  0
  1  2  2  0  0  0  0
 12 14  1  6  0  0  0
  3  4  2  0  0  0  0
 13 15  2  0  0  0  0
 13 16  1  0  0  0  0
  7  8  2  0  0  0  0
 16 17  1  0  0  0  0
  7  9  1  0  0  0  0
 17 18  1  0  0  0  0
  1  7  1  0  0  0  0
 18 19  2  0  0  0  0
  4  5  1  0  0  0  0
 19 20  1  0  0  0  0
  4 10  1  0  0  0  0
 20 21  2  0  0  0  0
  2  3  1  0  0  0  0
 21 22  1  0  0  0  0
 10 11  1  6  0  0  0
 22 23  2  0  0  0  0
 23 18  1  0  0  0  0
M  CHG  2   7   1   9  -1
M  END
> <Value>
3.769806621130954

> <Relation>
=

> <SourceURI>
mol:CHEMBL499086

$$$$

Generated by Molecular Materials Informatics

 22 23  0  0  0  0  0  0  0  0999 V2000
    1.2990   -0.7500    0.0000 C   0  0  0  0  0  0  0  0  0  0  0  0
    0.0000   -1.5000    0.0000 C   0  0  0  0  0  0  0  0  0  0  0  0
   -1.2990   -0.7500    0.0000 C   0  0  0  0  0  0  0  0  0  0  0  0
   -1.2990    0.7500    0.0000 C   0  0  0  0  0  0  0  0  0  0  0  0
    0.0000    1.5000    0.0000 C   0  0  0  0  0  0  0  0  0  0  0  0
    1.2990    0.7500    0.0000 C   0  0  0  0  0  0  0  0  0  0  0  0
    2.5973   -1.5031    0.0000 N   0  3  0  0  0  0  0  0  0  0  0  0
    2.5956   -2.7031    0.0000 O   0  0  0  0  0  0  0  0  0  0  0  0
    3.6375   -0.9049    0.0000 O   0  5  0  0  0  0  0  0  0  0  0  0
   -2.5978    1.5022    0.0000 C   0  0  0  0  0  0  0  0  0  0  0  0
   -2.5958    2.7022    0.0000 O   0  0  0  0  0  0  0  0  0  0  0  0
   -3.8990    0.7543    0.0000 C   0  0  0  0  0  0  0  0  0  0  0  0
   -5.1978    1.5065    0.0000 C   0  0  0  0  0  0  0  0  0  0  0  0
   -3.9010   -0.4457    0.0000 N   0  0  0  0  0  0  0  0  0  0  0  0
   -5.1958    2.7065    0.0000 O   0  0  0  0  0  0  0  0  0  0  0  0
   -6.4990    0.7586    0.0000 N   0  0  0  0  0  0  0  0  0  0  0  0
   -7.7977    1.5108    0.0000 C   0  0  0  0  0  0  0  0  0  0  0  0
   -9.0994    0.7653    0.0000 C   0  0  0  0  0  0  0  0  0  0  0  0
  -10.3959    1.5196    0.0000 C   0  0  0  0  0  0  0  0  0  0  0  0
  -10.3908    3.0196    0.0000 C   0  0  0  0  0  0  0  0  0  0  0  0
   -9.0892    3.7652    0.0000 C   0  0  0  0  0  0  0  0  0  0  0  0
   -7.7927    3.0109    0.0000 C   0  0  0  0  0  0  0  0  0  0  0  0
 10 11  1  1  0  0  0
  5  6  2  0  0  0  0
 10 12  1  0  0  0  0
  6  1  1  0  0  0  0
 12 13  1  0  0  0  0
  1  2  2  0  0  0  0
 12 14  1  1  0  0  0
  3  4  2  0  0  0  0
 13 15  2  0  0  0  0
 13 16  1  0  0  0  0
  7  8  2  0  0  0  0
 16 17  1  0  0  0  0
 17 18  1  0  0  0  0
  7  9  1  0  0  0  0
  1  7  1  0  0  0  0
  4  5  1  0  0  0  0
  4 10  1  0  0  0  0
  2  3  1  0  0  0  0
 17 22  1  0  0  0  0
 18 19  1  0  0  0  0
 19 20  1  0  0  0  0
 20 21  1  0  0  0  0
 21 22  1  0  0  0  0
M  CHG  2   7   1   9  -1
M  END
> <Value>
3.599807511407424

> <Relation>
=

> <SourceURI>
mol:CHEMBL525389

$$$$

Generated by Molecular Materials Informatics

 19 19  0  0  0  0  0  0  0  0999 V2000
    1.2990   -0.7500    0.0000 C   0  0  0  0  0  0  0  0  0  0  0  0
    0.0000   -1.5000    0.0000 C   0  0  0  0  0  0  0  0  0  0  0  0
   -1.2990   -0.7500    0.0000 C   0  0  0  0  0  0  0  0  0  0  0  0
   -1.2990    0.7500    0.0000 C   0  0  0  0  0  0  0  0  0  0  0  0
    0.0000    1.5000    0.0000 C   0  0  0  0  0  0  0  0  0  0  0  0
    1.2990    0.7500    0.0000 C   0  0  0  0  0  0  0  0  0  0  0  0
    2.5973   -1.5031    0.0000 N   0  3  0  0  0  0  0  0  0  0  0  0
    2.5956   -2.7031    0.0000 O   0  0  0  0  0  0  0  0  0  0  0  0
    3.6375   -0.9049    0.0000 O   0  5  0  0  0  0  0  0  0  0  0  0
   -2.5998    1.4987    0.0000 C   0  0  0  0  0  0  0  0  0  0  0  0
   -3.6380    0.8969    0.0000 O   0  0  0  0  0  0  0  0  0  0  0  0
   -2.6028    2.9995    0.0000 C   0  0  0  0  0  0  0  0  0  0  0  0
   -3.9036    3.7481    0.0000 C   0  0  0  0  0  0  0  0  0  0  0  0
   -1.5646    3.6012    0.0000 N   0  0  0  0  0  0  0  0  0  0  0  0
   -4.9418    3.1464    0.0000 O   0  0  0  0  0  0  0  0  0  0  0  0
   -3.9066    5.2489    0.0000 N   0  0  0  0  0  0  0  0  0  0  0  0
   -5.2073    5.9976    0.0000 C   0  0  0  0  0  0  0  0  0  0  0  0
   -5.2097    7.1976    0.0000 C   0  0  0  0  0  0  0  0  0  0  0  0
   -6.2455    5.3959    0.0000 C   0  0  0  0  0  0  0  0  0  0  0  0
  4  5  1  0  0  0  0
  4 10  1  0  0  0  0
  2  3  1  0  0  0  0
 10 11  1  6  0  0  0
  5  6  2  0  0  0  0
 10 12  1  0  0  0  0
  6  1  1  0  0  0  0
 12 13  1  0  0  0  0
  1  2  2  0  0  0  0
 12 14  1  6  0  0  0
  3  4  2  0  0  0  0
 13 15  2  0  0  0  0
 13 16  1  0  0  0  0
  7  8  2  0  0  0  0
 16 17  1  0  0  0  0
  7  9  1  0  0  0  0
 17 18  1  0  0  0  0
  1  7  1  0  0  0  0
 17 19  1  0  0  0  0
M  CHG  2   7   1   9  -1
M  END
> <Value>
3.6008456660417836

> <Relation>
=

> <SourceURI>
mol:CHEMBL500165

$$$$

Generated by Molecular Materials Informatics

 19 19  0  0  0  0  0  0  0  0999 V2000
    1.2990   -0.7500    0.0000 C   0  0  0  0  0  0  0  0  0  0  0  0
    0.0000   -1.5000    0.0000 C   0  0  0  0  0  0  0  0  0  0  0  0
   -1.2990   -0.7500    0.0000 C   0  0  0  0  0  0  0  0  0  0  0  0
   -1.2990    0.7500    0.0000 C   0  0  0  0  0  0  0  0  0  0  0  0
    0.0000    1.5000    0.0000 C   0  0  0  0  0  0  0  0  0  0  0  0
    1.2990    0.7500    0.0000 C   0  0  0  0  0  0  0  0  0  0  0  0
    2.5973   -1.5031    0.0000 N   0  3  0  0  0  0  0  0  0  0  0  0
    2.5956   -2.7031    0.0000 O   0  0  0  0  0  0  0  0  0  0  0  0
    3.6375   -0.9049    0.0000 O   0  5  0  0  0  0  0  0  0  0  0  0
   -2.5998    1.4987    0.0000 C   0  0  0  0  0  0  0  0  0  0  0  0
   -3.6380    0.8969    0.0000 O   0  0  0  0  0  0  0  0  0  0  0  0
   -2.6028    2.9995    0.0000 C   0  0  0  0  0  0  0  0  0  0  0  0
   -3.9036    3.7481    0.0000 C   0  0  0  0  0  0  0  0  0  0  0  0
   -1.5646    3.6012    0.0000 N   0  0  0  0  0  0  0  0  0  0  0  0
   -4.9418    3.1464    0.0000 O   0  0  0  0  0  0  0  0  0  0  0  0
   -3.9066    5.2489    0.0000 N   0  0  0  0  0  0  0  0  0  0  0  0
   -5.2073    5.9976    0.0000 C   0  0  0  0  0  0  0  0  0  0  0  0
   -5.2103    7.4984    0.0000 C   0  0  0  0  0  0  0  0  0  0  0  0
   -6.2503    8.0970    0.0000 C   0  0  0  0  0  0  0  0  0  0  0  0
  4  5  1  0  0  0  0
  4 10  1  0  0  0  0
  2  3  1  0  0  0  0
 10 11  1  6  0  0  0
  5  6  2  0  0  0  0
 10 12  1  0  0  0  0
  6  1  1  0  0  0  0
 12 13  1  0  0  0  0
  1  2  2  0  0  0  0
 12 14  1  6  0  0  0
  3  4  2  0  0  0  0
 13 15  2  0  0  0  0
 13 16  1  0  0  0  0
  7  8  2  0  0  0  0
 16 17  1  0  0  0  0
  7  9  1  0  0  0  0
 17 18  1  0  0  0  0
  1  7  1  0  0  0  0
 18 19  1  0  0  0  0
M  CHG  2   7   1   9  -1
M  END
> <Value>
3.7370745306681683

> <Relation>
=

> <SourceURI>
mol:CHEMBL499906

$$$$

Generated by Molecular Materials Informatics

 24 24  0  0  0  0  0  0  0  0999 V2000
    1.2990   -0.7500    0.0000 C   0  0  0  0  0  0  0  0  0  0  0  0
    0.0000   -1.5000    0.0000 C   0  0  0  0  0  0  0  0  0  0  0  0
   -1.2990   -0.7500    0.0000 C   0  0  0  0  0  0  0  0  0  0  0  0
   -1.2990    0.7500    0.0000 C   0  0  0  0  0  0  0  0  0  0  0  0
    0.0000    1.5000    0.0000 C   0  0  0  0  0  0  0  0  0  0  0  0
    1.2990    0.7500    0.0000 C   0  0  0  0  0  0  0  0  0  0  0  0
    2.5973   -1.5031    0.0000 N   0  3  0  0  0  0  0  0  0  0  0  0
    2.5956   -2.7031    0.0000 O   0  0  0  0  0  0  0  0  0  0  0  0
    3.6375   -0.9049    0.0000 O   0  5  0  0  0  0  0  0  0  0  0  0
   -2.5973    1.5031    0.0000 C   0  0  0  0  0  0  0  0  0  0  0  0
   -3.6375    0.9049    0.0000 O   0  0  0  0  0  0  0  0  0  0  0  0
   -2.5951    3.0039    0.0000 C   0  0  0  0  0  0  0  0  0  0  0  0
   -3.8933    3.7570    0.0000 C   0  0  0  0  0  0  0  0  0  0  0  0
   -1.5549    3.6021    0.0000 N   0  0  0  0  0  0  0  0  0  0  0  0
   -4.9336    3.1588    0.0000 O   0  0  0  0  0  0  0  0  0  0  0  0
   -3.8912    5.2578    0.0000 N   0  0  0  0  0  0  0  0  0  0  0  0
   -5.1894    6.0109    0.0000 C   0  0  0  0  0  0  0  0  0  0  0  0
   -5.1873    7.5117    0.0000 C   0  0  0  0  0  0  0  0  0  0  0  0
   -6.4855    8.2648    0.0000 C   0  0  0  0  0  0  0  0  0  0  0  0
   -6.4834    9.7656    0.0000 C   0  0  0  0  0  0  0  0  0  0  0  0
   -7.7816   10.5187    0.0000 C   0  0  0  0  0  0  0  0  0  0  0  0
   -7.7794   12.0195    0.0000 C   0  0  0  0  0  0  0  0  0  0  0  0
   -6.7392   12.6177    0.0000 O   0  0  0  0  0  0  0  0  0  0  0  0
   -8.8174   12.6216    0.0000 O   0  0  0  0  0  0  0  0  0  0  0  0
 10 12  1  0  0  0  0
  6  1  1  0  0  0  0
 12 13  1  0  0  0  0
  1  2  2  0  0  0  0
 12 14  1  6  0  0  0
  3  4  2  0  0  0  0
 13 15  2  0  0  0  0
 13 16  1  0  0  0  0
  7  8  2  0  0  0  0
 16 17  1  0  0  0  0
  7  9  1  0  0  0  0
 17 18  1  0  0  0  0
  1  7  1  0  0  0  0
 18 19  1  0  0  0  0
  4  5  1  0  0  0  0
 19 20  1  0  0  0  0
  4 10  1  0  0  0  0
 20 21  1  0  0  0  0
  2  3  1  0  0  0  0
 21 22  1  0  0  0  0
 10 11  1  6  0  0  0
  5  6  2  0  0  0  0
 22 23  1  0  0  0  0
 22 24  2  0  0  0  0
M  CHG  2   7   1   9  -1
M  END
> <Value>
2.8574228390794656

> <Relation>
=

> <SourceURI>
mol:CHEMBL497745

$$$$

Generated by Molecular Materials Informatics

 24 24  0  0  0  0  0  0  0  0999 V2000
    1.2990   -0.7500    0.0000 C   0  0  0  0  0  0  0  0  0  0  0  0
    0.0000   -1.5000    0.0000 C   0  0  0  0  0  0  0  0  0  0  0  0
   -1.2990   -0.7500    0.0000 C   0  0  0  0  0  0  0  0  0  0  0  0
   -1.2990    0.7500    0.0000 C   0  0  0  0  0  0  0  0  0  0  0  0
    0.0000    1.5000    0.0000 C   0  0  0  0  0  0  0  0  0  0  0  0
    1.2990    0.7500    0.0000 C   0  0  0  0  0  0  0  0  0  0  0  0
    2.5973   -1.5031    0.0000 N   0  3  0  0  0  0  0  0  0  0  0  0
    2.5956   -2.7031    0.0000 O   0  0  0  0  0  0  0  0  0  0  0  0
    3.6375   -0.9049    0.0000 O   0  5  0  0  0  0  0  0  0  0  0  0
   -2.5973    1.5031    0.0000 C   0  0  0  0  0  0  0  0  0  0  0  0
   -3.6375    0.9049    0.0000 O   0  0  0  0  0  0  0  0  0  0  0  0
   -2.5951    3.0039    0.0000 C   0  0  0  0  0  0  0  0  0  0  0  0
   -3.8933    3.7570    0.0000 C   0  0  0  0  0  0  0  0  0  0  0  0
   -1.5549    3.6021    0.0000 N   0  0  0  0  0  0  0  0  0  0  0  0
   -4.9336    3.1588    0.0000 O   0  0  0  0  0  0  0  0  0  0  0  0
   -3.8912    5.2578    0.0000 N   0  0  0  0  0  0  0  0  0  0  0  0
   -5.1894    6.0109    0.0000 C   0  0  0  0  0  0  0  0  0  0  0  0
   -6.4920    5.2654    0.0000 C   0  0  0  0  0  0  0  0  0  0  0  0
   -6.4962    4.0654    0.0000 O   0  0  0  0  0  0  0  0  0  0  0  0
   -5.1873    7.5117    0.0000 C   0  0  0  0  0  0  0  0  0  0  0  0
   -7.5293    5.8687    0.0000 O   0  0  0  0  0  0  0  0  0  0  0  0
   -6.4855    8.2648    0.0000 C   0  0  0  0  0  0  0  0  0  0  0  0
   -6.4838    9.4648    0.0000 C   0  0  0  0  0  0  0  0  0  0  0  0
   -7.5258    7.6666    0.0000 C   0  0  0  0  0  0  0  0  0  0  0  0
 10 12  1  0  0  0  0
  6  1  1  0  0  0  0
 12 13  1  0  0  0  0
  1  2  2  0  0  0  0
 12 14  1  6  0  0  0
  3  4  2  0  0  0  0
 13 15  2  0  0  0  0
 13 16  1  0  0  0  0
  7  8  2  0  0  0  0
 16 17  1  0  0  0  0
  7  9  1  0  0  0  0
 17 18  1  0  0  0  0
  1  7  1  0  0  0  0
 18 19  1  0  0  0  0
  4  5  1  0  0  0  0
 17 20  1  6  0  0  0
  4 10  1  0  0  0  0
 18 21  2  0  0  0  0
  2  3  1  0  0  0  0
 20 22  1  0  0  0  0
 10 11  1  6  0  0  0
 22 23  1  0  0  0  0
  5  6  2  0  0  0  0
 22 24  1  0  0  0  0
M  CHG  2   7   1   9  -1
M  END
> <Value>
4.0675262353228465

> <Relation>
=

> <SourceURI>
mol:CHEMBL497910

$$$$

Generated by Molecular Materials Informatics

 27 28  0  0  0  0  0  0  0  0999 V2000
    1.2990   -0.7500    0.0000 C   0  0  0  0  0  0  0  0  0  0  0  0
    1.2990    0.7500    0.0000 C   0  0  0  0  0  0  0  0  0  0  0  0
    0.0000    1.5000    0.0000 C   0  0  0  0  0  0  0  0  0  0  0  0
   -1.2990    0.7500    0.0000 C   0  0  0  0  0  0  0  0  0  0  0  0
   -1.2990   -0.7500    0.0000 C   0  0  0  0  0  0  0  0  0  0  0  0
    0.0000   -1.5000    0.0000 C   0  0  0  0  0  0  0  0  0  0  0  0
    2.5973   -1.5031    0.0000 N   0  3  0  0  0  0  0  0  0  0  0  0
    2.5956   -2.7031    0.0000 O   0  0  0  0  0  0  0  0  0  0  0  0
    3.6375   -0.9049    0.0000 O   0  5  0  0  0  0  0  0  0  0  0  0
   -2.5998    1.4987    0.0000 C   0  0  0  0  0  0  0  0  0  0  0  0
   -3.6380    0.8969    0.0000 O   0  0  0  0  0  0  0  0  0  0  0  0
   -2.6028    2.9995    0.0000 C   0  0  0  0  0  0  0  0  0  0  0  0
   -3.9036    3.7481    0.0000 C   0  0  0  0  0  0  0  0  0  0  0  0
   -1.5646    3.6012    0.0000 N   0  0  0  0  0  0  0  0  0  0  0  0
   -4.9418    3.1464    0.0000 O   0  0  0  0  0  0  0  0  0  0  0  0
   -3.9066    5.2489    0.0000 N   0  0  0  0  0  0  0  0  0  0  0  0
   -5.2073    5.9976    0.0000 C   0  0  0  0  0  0  0  0  0  0  0  0
   -6.5074    5.2477    0.0000 C   0  0  0  0  0  0  0  0  0  0  0  0
   -6.5075    4.0477    0.0000 O   0  0  0  0  0  0  0  0  0  0  0  0
   -5.2103    7.4984    0.0000 C   0  0  0  0  0  0  0  0  0  0  0  0
   -7.5468    5.8474    0.0000 O   0  0  0  0  0  0  0  0  0  0  0  0
   -6.5111    8.2471    0.0000 C   0  0  0  0  0  0  0  0  0  0  0  0
   -6.5162    9.7471    0.0000 C   0  0  0  0  0  0  0  0  0  0  0  0
   -7.8178   10.4927    0.0000 C   0  0  0  0  0  0  0  0  0  0  0  0
   -9.1143    9.7383    0.0000 C   0  0  0  0  0  0  0  0  0  0  0  0
   -9.1092    8.2383    0.0000 C   0  0  0  0  0  0  0  0  0  0  0  0
   -7.8077    7.4927    0.0000 C   0  0  0  0  0  0  0  0  0  0  0  0
  1  2  2  0  0  0  0
 12 14  1  6  0  0  0
  3  4  2  0  0  0  0
 13 15  2  0  0  0  0
 13 16  1  0  0  0  0
  7  8  2  0  0  0  0
 16 17  1  0  0  0  0
  7  9  1  0  0  0  0
 17 18  1  0  0  0  0
  1  7  1  0  0  0  0
 18 19  1  0  0  0  0
  4  5  1  0  0  0  0
 17 20  1  6  0  0  0
  4 10  1  0  0  0  0
 18 21  2  0  0  0  0
  2  3  1  0  0  0  0
 20 22  1  0  0  0  0
 10 11  1  6  0  0  0
 22 23  2  0  0  0  0
  5  6  2  0  0  0  0
 23 24  1  0  0  0  0
 10 12  1  0  0  0  0
 24 25  2  0  0  0  0
  6  1  1  0  0  0  0
 25 26  1  0  0  0  0
 12 13  1  0  0  0  0
 26 27  2  0  0  0  0
 27 22  1  0  0  0  0
M  CHG  2   7   1   9  -1
M  END
> <Value>
4.218963061378868

> <Relation>
=

> <SourceURI>
mol:CHEMBL497922

$$$$

Generated by Molecular Materials Informatics

 23 23  0  0  0  0  0  0  0  0999 V2000
    1.2990   -0.7500    0.0000 C   0  0  0  0  0  0  0  0  0  0  0  0
    0.0000   -1.5000    0.0000 C   0  0  0  0  0  0  0  0  0  0  0  0
   -1.2990   -0.7500    0.0000 C   0  0  0  0  0  0  0  0  0  0  0  0
   -1.2990    0.7500    0.0000 C   0  0  0  0  0  0  0  0  0  0  0  0
    0.0000    1.5000    0.0000 C   0  0  0  0  0  0  0  0  0  0  0  0
    1.2990    0.7500    0.0000 C   0  0  0  0  0  0  0  0  0  0  0  0
    2.5973   -1.5031    0.0000 N   0  3  0  0  0  0  0  0  0  0  0  0
    2.5956   -2.7031    0.0000 O   0  0  0  0  0  0  0  0  0  0  0  0
    3.6375   -0.9049    0.0000 O   0  5  0  0  0  0  0  0  0  0  0  0
   -2.5973    1.5031    0.0000 C   0  0  0  0  0  0  0  0  0  0  0  0
   -3.6375    0.9049    0.0000 O   0  0  0  0  0  0  0  0  0  0  0  0
   -2.5951    3.0039    0.0000 C   0  0  0  0  0  0  0  0  0  0  0  0
   -3.8933    3.7570    0.0000 C   0  0  0  0  0  0  0  0  0  0  0  0
   -1.5549    3.6021    0.0000 N   0  0  0  0  0  0  0  0  0  0  0  0
   -4.9336    3.1588    0.0000 O   0  0  0  0  0  0  0  0  0  0  0  0
   -3.8912    5.2578    0.0000 N   0  0  0  0  0  0  0  0  0  0  0  0
   -5.1894    6.0109    0.0000 C   0  0  0  0  0  0  0  0  0  0  0  0
   -5.1873    7.5117    0.0000 C   0  0  0  0  0  0  0  0  0  0  0  0
   -4.1470    8.1099    0.0000 O   0  0  0  0  0  0  0  0  0  0  0  0
   -6.4920    5.2654    0.0000 C   0  0  0  0  0  0  0  0  0  0  0  0
   -6.2253    8.1138    0.0000 O   0  0  0  0  0  0  0  0  0  0  0  0
   -7.5293    5.8687    0.0000 C   0  0  0  0  0  0  0  0  0  0  0  0
   -6.4962    4.0654    0.0000 C   0  0  0  0  0  0  0  0  0  0  0  0
  5  6  2  0  0  0  0
 10 12  1  0  0  0  0
  6  1  1  0  0  0  0
 12 13  1  0  0  0  0
  1  2  2  0  0  0  0
 12 14  1  6  0  0  0
  3  4  2  0  0  0  0
 13 15  2  0  0  0  0
 13 16  1  0  0  0  0
  7  8  2  0  0  0  0
 16 17  1  0  0  0  0
  7  9  1  0  0  0  0
 17 18  1  0  0  0  0
  1  7  1  0  0  0  0
 18 19  1  0  0  0  0
  4  5  1  0  0  0  0
 17 20  1  1  0  0  0
  4 10  1  0  0  0  0
 18 21  2  0  0  0  0
  2  3  1  0  0  0  0
 20 22  1  0  0  0  0
 10 11  1  6  0  0  0
 20 23  1  0  0  0  0
M  CHG  2   7   1   9  -1
M  END
> <Value>
3.7961515362537654

> <Relation>
=

> <SourceURI>
mol:CHEMBL524452

$$$$

Generated by Molecular Materials Informatics

 25 25  0  0  0  0  0  0  0  0999 V2000
    1.2990   -0.7500    0.0000 C   0  0  0  0  0  0  0  0  0  0  0  0
    0.0000   -1.5000    0.0000 C   0  0  0  0  0  0  0  0  0  0  0  0
   -1.2990   -0.7500    0.0000 C   0  0  0  0  0  0  0  0  0  0  0  0
   -1.2990    0.7500    0.0000 C   0  0  0  0  0  0  0  0  0  0  0  0
    0.0000    1.5000    0.0000 C   0  0  0  0  0  0  0  0  0  0  0  0
    1.2990    0.7500    0.0000 C   0  0  0  0  0  0  0  0  0  0  0  0
    2.5973   -1.5031    0.0000 N   0  3  0  0  0  0  0  0  0  0  0  0
    2.5956   -2.7031    0.0000 O   0  0  0  0  0  0  0  0  0  0  0  0
    3.6375   -0.9049    0.0000 O   0  5  0  0  0  0  0  0  0  0  0  0
   -2.5978    1.5022    0.0000 C   0  0  0  0  0  0  0  0  0  0  0  0
   -2.5958    2.7022    0.0000 O   0  0  0  0  0  0  0  0  0  0  0  0
   -3.8990    0.7543    0.0000 C   0  0  0  0  0  0  0  0  0  0  0  0
   -5.1978    1.5065    0.0000 C   0  0  0  0  0  0  0  0  0  0  0  0
   -3.9010   -0.4457    0.0000 N   0  0  0  0  0  0  0  0  0  0  0  0
   -5.1958    2.7065    0.0000 O   0  0  0  0  0  0  0  0  0  0  0  0
   -6.4990    0.7586    0.0000 N   0  0  0  0  0  0  0  0  0  0  0  0
   -7.7977    1.5108    0.0000 C   0  0  0  0  0  0  0  0  0  0  0  0
   -7.7983    3.0116    0.0000 C   0  0  0  0  0  0  0  0  0  0  0  0
   -6.7592    3.6117    0.0000 O   0  0  0  0  0  0  0  0  0  0  0  0
   -9.0990    0.7630    0.0000 C   0  0  0  0  0  0  0  0  0  0  0  0
   -8.8374    3.6119    0.0000 O   0  0  0  0  0  0  0  0  0  0  0  0
  -10.3977    1.5151    0.0000 C   0  0  0  0  0  0  0  0  0  0  0  0
  -11.6990    0.7673    0.0000 C   0  0  0  0  0  0  0  0  0  0  0  0
  -10.3957    2.7151    0.0000 C   0  0  0  0  0  0  0  0  0  0  0  0
  -12.7374    1.3687    0.0000 C   0  0  0  0  0  0  0  0  0  0  0  0
  6  1  1  0  0  0  0
 12 13  1  0  0  0  0
  1  2  2  0  0  0  0
 12 14  1  1  0  0  0
  3  4  2  0  0  0  0
 13 15  2  0  0  0  0
 13 16  1  0  0  0  0
  7  8  2  0  0  0  0
 16 17  1  0  0  0  0
  7  9  1  0  0  0  0
 17 18  1  0  0  0  0
  1  7  1  0  0  0  0
 18 19  1  0  0  0  0
  4  5  1  0  0  0  0
 17 20  1  1  0  0  0
  4 10  1  0  0  0  0
 18 21  2  0  0  0  0
  2  3  1  0  0  0  0
 20 22  1  0  0  0  0
 10 11  1  1  0  0  0
 22 23  1  0  0  0  0
  5  6  2  0  0  0  0
 22 24  1  0  0  0  0
 10 12  1  0  0  0  0
 23 25  1  0  0  0  0
M  CHG  2   7   1   9  -1
M  END
> <Value>
3.988006885340743

> <Relation>
=

> <SourceURI>
mol:CHEMBL497923

$$$$

Generated by Molecular Materials Informatics

 27 28  0  0  0  0  0  0  0  0999 V2000
   -6.9227    0.7733    0.0000 C   0  0  0  0  0  0  0  0  0  0  0  0
   -6.9249   -0.7311    0.0000 C   0  0  0  0  0  0  0  0  0  0  0  0
   -5.6251   -1.4816    0.0000 C   0  0  0  0  0  0  0  0  0  0  0  0
   -4.3225   -0.7302    0.0000 C   0  0  0  0  0  0  0  0  0  0  0  0
   -4.3278    0.7799    0.0000 C   0  0  0  0  0  0  0  0  0  0  0  0
   -5.6283    1.5239    0.0000 C   0  0  0  0  0  0  0  0  0  0  0  0
   -8.2220    1.5229    0.0000 O   0  0  0  0  0  0  0  0  0  0  0  0
   -9.5207    0.7728    0.0000 C   0  0  0  0  0  0  0  0  0  0  0  0
   -8.2245   -1.4800    0.0000 O   0  0  0  0  0  0  0  0  0  0  0  0
   -3.0314    1.5348    0.0000 C   0  0  0  0  0  0  0  0  0  0  0  0
   -1.7296    0.7897    0.0000 C   0  0  0  0  0  0  0  0  0  0  0  0
   -0.4334    1.5446    0.0000 C   0  0  0  0  0  0  0  0  0  0  0  0
    0.8684    0.7995    0.0000 C   0  0  0  0  0  0  0  0  0  0  0  0
   -0.4390    3.0446    0.0000 O   0  0  0  0  0  0  0  0  0  0  0  0
    2.1646    1.5544    0.0000 C   0  0  0  0  0  0  0  0  0  0  0  0
    3.4664    0.8093    0.0000 C   0  0  0  0  0  0  0  0  0  0  0  0
    2.1590    3.0544    0.0000 O   0  0  0  0  0  0  0  0  0  0  0  0
    4.7628    1.5642    0.0000 C   0  0  0  0  0  0  0  0  0  0  0  0
    6.0646    0.8191    0.0000 C   0  0  0  0  0  0  0  0  0  0  0  0
    6.0654   -0.6758    0.0000 C   0  0  0  0  0  0  0  0  0  0  0  0
    7.3657   -1.4207    0.0000 C   0  0  0  0  0  0  0  0  0  0  0  0
    8.6637   -0.6656    0.0000 C   0  0  0  0  0  0  0  0  0  0  0  0
    8.6532    0.8420    0.0000 C   0  0  0  0  0  0  0  0  0  0  0  0
    7.3519    1.5802    0.0000 C   0  0  0  0  0  0  0  0  0  0  0  0
    9.9468    1.6015    0.0000 O   0  0  0  0  0  0  0  0  0  0  0  0
   11.2512    0.8609    0.0000 C   0  0  0  0  0  0  0  0  0  0  0  0
    9.9667   -1.4091    0.0000 O   0  0  0  0  0  0  0  0  0  0  0  0
  1  2  2  0  0  0  0
 12 14  2  0  0  0  0
  1  7  1  0  0  0  0
 13 15  2  0  0  0  0
  3  4  2  0  0  0  0
 15 16  1  0  0  0  0
  7  8  1  0  0  0  0
 15 17  1  0  0  0  0
 16 18  2  0  0  0  0
  2  9  1  0  0  0  0
 18 19  1  0  0  0  0
  4  5  1  0  0  0  0
 19 20  2  0  0  0  0
  5 10  1  0  0  0  0
 20 21  1  0  0  0  0
  2  3  1  0  0  0  0
 21 22  2  0  0  0  0
 10 11  2  0  0  0  0
 22 23  1  0  0  0  0
  5  6  2  0  0  0  0
 23 24  2  0  0  0  0
 24 19  1  0  0  0  0
 11 12  1  0  0  0  0
 23 25  1  0  0  0  0
  6  1  1  0  0  0  0
 25 26  1  0  0  0  0
 12 13  1  0  0  0  0
 22 27  1  0  0  0  0
M  END
> <Value>
4.809668301829708

> <Relation>
=

> <SourceURI>
mol:CHEMBL116438

$$$$

Generated by Molecular Materials Informatics

 25 26  0  0  0  0  0  0  0  0999 V2000
   10.5854  -29.8979    0.0000 C   0  0  0  0  0  0  0  0  0  0  0  0
   10.5832  -31.4021    0.0000 C   0  0  0  0  0  0  0  0  0  0  0  0
   11.8829  -32.1528    0.0000 C   0  0  0  0  0  0  0  0  0  0  0  0
   13.1854  -31.4013    0.0000 C   0  0  0  0  0  0  0  0  0  0  0  0
   13.1803  -29.8913    0.0000 C   0  0  0  0  0  0  0  0  0  0  0  0
   11.8796  -29.1474    0.0000 C   0  0  0  0  0  0  0  0  0  0  0  0
   14.4765  -29.1363    0.0000 C   0  0  0  0  0  0  0  0  0  0  0  0
   15.7783  -29.8815    0.0000 C   0  0  0  0  0  0  0  0  0  0  0  0
   17.0746  -29.1266    0.0000 C   0  0  0  0  0  0  0  0  0  0  0  0
   18.3763  -29.8717    0.0000 C   0  0  0  0  0  0  0  0  0  0  0  0
   17.0688  -27.6266    0.0000 O   0  0  0  0  0  0  0  0  0  0  0  0
   19.6726  -29.1168    0.0000 C   0  0  0  0  0  0  0  0  0  0  0  0
   19.6670  -27.6168    0.0000 O   0  0  0  0  0  0  0  0  0  0  0  0
   15.7839  -31.3813    0.0000 N   0  0  0  0  0  0  0  0  0  0  0  0
   20.9744  -29.8619    0.0000 N   0  0  0  0  0  0  0  0  0  0  0  0
   22.2706  -29.1070    0.0000 C   0  0  0  0  0  0  0  0  0  0  0  0
   23.5724  -29.8523    0.0000 C   0  0  0  0  0  0  0  0  0  0  0  0
   22.2650  -27.6070    0.0000 C   0  0  0  0  0  0  0  0  0  0  0  0
   23.5780  -31.3521    0.0000 O   0  0  0  0  0  0  0  0  0  0  0  0
   24.8686  -29.0972    0.0000 O   0  0  0  0  0  0  0  0  0  0  0  0
   23.5628  -26.8603    0.0000 C   0  0  0  0  0  0  0  0  0  0  0  0
   23.5579  -25.3617    0.0000 C   0  0  0  0  0  0  0  0  0  0  0  0
   22.2550  -24.6150    0.0000 C   0  0  0  0  0  0  0  0  0  0  0  0
   20.9546  -25.3781    0.0000 C   0  0  0  0  0  0  0  0  0  0  0  0
   20.9659  -26.8743    0.0000 C   0  0  0  0  0  0  0  0  0  0  0  0
  1  2  2  0  0  0  0
  2  3  1  0  0  0  0
  3  4  2  0  0  0  0
  4  5  1  0  0  0  0
  5  6  2  0  0  0  0
  6  1  1  0  0  0  0
  5  7  1  0  0  0  0
  7  8  1  0  0  0  0
  8  9  1  0  0  0  0
  9 10  1  0  0  0  0
  9 11  2  0  0  0  0
 10 12  1  0  0  0  0
 12 13  2  0  0  0  0
  8 14  1  6  0  0  0
 12 15  1  0  0  0  0
 16 15  1  1  0  0  0
 16 17  1  0  0  0  0
 16 18  1  0  0  0  0
 17 19  2  0  0  0  0
 17 20  1  0  0  0  0
 18 21  2  0  0  0  0
 21 22  1  0  0  0  0
 22 23  2  0  0  0  0
 23 24  1  0  0  0  0
 24 25  2  0  0  0  0
 25 18  1  0  0  0  0
M  END
> <Value>
5.4179366370882915

> <Relation>
=

> <SourceURI>
mol:CHEMBL2414237

$$$$

Generated by Molecular Materials Informatics

 26 27  0  0  0  0  0  0  0  0999 V2000
   -0.4237  -29.9712    0.0000 C   0  0  0  0  0  0  0  0  0  0  0  0
   -0.4257  -31.4753    0.0000 C   0  0  0  0  0  0  0  0  0  0  0  0
    0.8738  -32.2261    0.0000 C   0  0  0  0  0  0  0  0  0  0  0  0
    2.1765  -31.4744    0.0000 C   0  0  0  0  0  0  0  0  0  0  0  0
    2.1712  -29.9646    0.0000 C   0  0  0  0  0  0  0  0  0  0  0  0
    0.8705  -29.2206    0.0000 C   0  0  0  0  0  0  0  0  0  0  0  0
    3.4674  -29.2095    0.0000 C   0  0  0  0  0  0  0  0  0  0  0  0
    4.7692  -29.9546    0.0000 C   0  0  0  0  0  0  0  0  0  0  0  0
    6.0654  -29.1999    0.0000 C   0  0  0  0  0  0  0  0  0  0  0  0
    7.3672  -29.9450    0.0000 C   0  0  0  0  0  0  0  0  0  0  0  0
    6.0598  -27.6999    0.0000 O   0  0  0  0  0  0  0  0  0  0  0  0
    8.6634  -29.1899    0.0000 C   0  0  0  0  0  0  0  0  0  0  0  0
    8.6577  -27.6899    0.0000 O   0  0  0  0  0  0  0  0  0  0  0  0
    4.7749  -31.4546    0.0000 N   0  0  0  0  0  0  0  0  0  0  0  0
    9.9654  -29.9352    0.0000 N   0  0  0  0  0  0  0  0  0  0  0  0
   11.2614  -29.1802    0.0000 C   0  0  0  0  0  0  0  0  0  0  0  0
   12.5634  -29.9252    0.0000 C   0  0  0  0  0  0  0  0  0  0  0  0
   11.2557  -27.6803    0.0000 C   0  0  0  0  0  0  0  0  0  0  0  0
   12.5688  -31.4251    0.0000 O   0  0  0  0  0  0  0  0  0  0  0  0
   13.8593  -29.1704    0.0000 O   0  0  0  0  0  0  0  0  0  0  0  0
   12.5519  -26.9254    0.0000 C   0  0  0  0  0  0  0  0  0  0  0  0
   13.8448  -27.6754    0.0000 C   0  0  0  0  0  0  0  0  0  0  0  0
   15.1401  -26.9217    0.0000 C   0  0  0  0  0  0  0  0  0  0  0  0
   15.1353  -25.4201    0.0000 C   0  0  0  0  0  0  0  0  0  0  0  0
   13.8243  -24.6755    0.0000 C   0  0  0  0  0  0  0  0  0  0  0  0
   12.5344  -25.4334    0.0000 C   0  0  0  0  0  0  0  0  0  0  0  0
  1  2  2  0  0  0  0
  2  3  1  0  0  0  0
  3  4  2  0  0  0  0
  4  5  1  0  0  0  0
  5  6  2  0  0  0  0
  6  1  1  0  0  0  0
  5  7  1  0  0  0  0
  7  8  1  0  0  0  0
  8  9  1  0  0  0  0
  9 10  1  0  0  0  0
  9 11  2  0  0  0  0
 10 12  1  0  0  0  0
 12 13  2  0  0  0  0
  8 14  1  6  0  0  0
 12 15  1  0  0  0  0
 16 15  1  1  0  0  0
 16 17  1  0  0  0  0
 16 18  1  0  0  0  0
 17 19  2  0  0  0  0
 17 20  1  0  0  0  0
 18 21  1  0  0  0  0
 21 22  2  0  0  0  0
 22 23  1  0  0  0  0
 23 24  2  0  0  0  0
 24 25  1  0  0  0  0
 25 26  2  0  0  0  0
 26 21  1  0  0  0  0
M  END
> <Value>
5.325138859262188

> <Relation>
=

> <SourceURI>
mol:CHEMBL2414236

$$$$

Generated by Molecular Materials Informatics

 23 23  0  0  0  0  0  0  0  0999 V2000
   11.7554  -23.9558    0.0000 C   0  0  0  0  0  0  0  0  0  0  0  0
   11.7534  -25.4602    0.0000 C   0  0  0  0  0  0  0  0  0  0  0  0
   13.0529  -26.2110    0.0000 C   0  0  0  0  0  0  0  0  0  0  0  0
   14.3556  -25.4593    0.0000 C   0  0  0  0  0  0  0  0  0  0  0  0
   14.3503  -23.9495    0.0000 C   0  0  0  0  0  0  0  0  0  0  0  0
   13.0496  -23.2054    0.0000 C   0  0  0  0  0  0  0  0  0  0  0  0
   15.6466  -23.1945    0.0000 C   0  0  0  0  0  0  0  0  0  0  0  0
   16.9484  -23.9395    0.0000 C   0  0  0  0  0  0  0  0  0  0  0  0
   18.2444  -23.1847    0.0000 C   0  0  0  0  0  0  0  0  0  0  0  0
   19.5465  -23.9298    0.0000 C   0  0  0  0  0  0  0  0  0  0  0  0
   18.2388  -21.6849    0.0000 O   0  0  0  0  0  0  0  0  0  0  0  0
   20.8425  -23.1749    0.0000 C   0  0  0  0  0  0  0  0  0  0  0  0
   20.8369  -21.6749    0.0000 O   0  0  0  0  0  0  0  0  0  0  0  0
   16.9540  -25.4395    0.0000 N   0  0  0  0  0  0  0  0  0  0  0  0
   22.1443  -23.9200    0.0000 N   0  0  0  0  0  0  0  0  0  0  0  0
   23.4405  -23.1651    0.0000 C   0  0  0  0  0  0  0  0  0  0  0  0
   24.7424  -23.9102    0.0000 C   0  0  0  0  0  0  0  0  0  0  0  0
   23.4349  -21.6652    0.0000 C   0  0  0  0  0  0  0  0  0  0  0  0
   24.7480  -25.4102    0.0000 O   0  0  0  0  0  0  0  0  0  0  0  0
   26.0384  -23.1554    0.0000 O   0  0  0  0  0  0  0  0  0  0  0  0
   24.7309  -20.9101    0.0000 C   0  0  0  0  0  0  0  0  0  0  0  0
   26.0330  -21.6554    0.0000 C   0  0  0  0  0  0  0  0  0  0  0  0
   24.7253  -19.4104    0.0000 C   0  0  0  0  0  0  0  0  0  0  0  0
  1  2  2  0  0  0  0
  2  3  1  0  0  0  0
  3  4  2  0  0  0  0
  4  5  1  0  0  0  0
  5  6  2  0  0  0  0
  6  1  1  0  0  0  0
  5  7  1  0  0  0  0
  7  8  1  0  0  0  0
  8  9  1  0  0  0  0
  9 10  1  0  0  0  0
  9 11  2  0  0  0  0
 10 12  1  0  0  0  0
 12 13  2  0  0  0  0
  8 14  1  6  0  0  0
 12 15  1  0  0  0  0
 16 15  1  1  0  0  0
 16 17  1  0  0  0  0
 16 18  1  0  0  0  0
 17 19  2  0  0  0  0
 17 20  1  0  0  0  0
 18 21  1  0  0  0  0
 21 22  1  0  0  0  0
 21 23  1  0  0  0  0
M  END
> <Value>
5.85078088734462

> <Relation>
=

> <SourceURI>
mol:CHEMBL2414235

$$$$

Generated by Molecular Materials Informatics

 26 27  0  0  0  0  0  0  0  0999 V2000
   -0.7452  -24.6477    0.0000 C   0  0  0  0  0  0  0  0  0  0  0  0
   -0.7472  -26.1519    0.0000 C   0  0  0  0  0  0  0  0  0  0  0  0
    0.5524  -26.9026    0.0000 C   0  0  0  0  0  0  0  0  0  0  0  0
    1.8550  -26.1510    0.0000 C   0  0  0  0  0  0  0  0  0  0  0  0
    1.8499  -24.6411    0.0000 C   0  0  0  0  0  0  0  0  0  0  0  0
    0.5490  -23.8972    0.0000 C   0  0  0  0  0  0  0  0  0  0  0  0
    3.1459  -23.8862    0.0000 C   0  0  0  0  0  0  0  0  0  0  0  0
    4.4479  -24.6311    0.0000 C   0  0  0  0  0  0  0  0  0  0  0  0
    5.7440  -23.8764    0.0000 C   0  0  0  0  0  0  0  0  0  0  0  0
    7.0459  -24.6215    0.0000 C   0  0  0  0  0  0  0  0  0  0  0  0
    5.7384  -22.3764    0.0000 O   0  0  0  0  0  0  0  0  0  0  0  0
    8.3420  -23.8668    0.0000 C   0  0  0  0  0  0  0  0  0  0  0  0
    8.3364  -22.3668    0.0000 O   0  0  0  0  0  0  0  0  0  0  0  0
    4.4535  -26.1311    0.0000 N   0  0  0  0  0  0  0  0  0  0  0  0
    9.6438  -24.6117    0.0000 N   0  0  0  0  0  0  0  0  0  0  0  0
   10.9402  -23.8568    0.0000 C   0  0  0  0  0  0  0  0  0  0  0  0
   12.2418  -24.6019    0.0000 C   0  0  0  0  0  0  0  0  0  0  0  0
   10.9344  -22.3568    0.0000 C   0  0  0  0  0  0  0  0  0  0  0  0
   12.2476  -26.1019    0.0000 O   0  0  0  0  0  0  0  0  0  0  0  0
   13.5382  -23.8471    0.0000 O   0  0  0  0  0  0  0  0  0  0  0  0
   14.8400  -24.5921    0.0000 C   0  0  0  0  0  0  0  0  0  0  0  0
   12.2324  -21.6101    0.0000 C   0  0  0  0  0  0  0  0  0  0  0  0
   12.2275  -20.1115    0.0000 C   0  0  0  0  0  0  0  0  0  0  0  0
   10.9246  -19.3648    0.0000 C   0  0  0  0  0  0  0  0  0  0  0  0
    9.6240  -20.1279    0.0000 C   0  0  0  0  0  0  0  0  0  0  0  0
    9.6355  -21.6241    0.0000 C   0  0  0  0  0  0  0  0  0  0  0  0
  1  2  2  0  0  0  0
  2  3  1  0  0  0  0
  3  4  2  0  0  0  0
  4  5  1  0  0  0  0
  5  6  2  0  0  0  0
  6  1  1  0  0  0  0
  5  7  1  0  0  0  0
  7  8  1  0  0  0  0
  8  9  1  0  0  0  0
  9 10  1  0  0  0  0
  9 11  2  0  0  0  0
 10 12  1  0  0  0  0
 12 13  2  0  0  0  0
  8 14  1  6  0  0  0
 12 15  1  0  0  0  0
 16 15  1  1  0  0  0
 16 17  1  0  0  0  0
 16 18  1  0  0  0  0
 17 19  2  0  0  0  0
 17 20  1  0  0  0  0
 20 21  1  0  0  0  0
 18 22  2  0  0  0  0
 22 23  1  0  0  0  0
 23 24  2  0  0  0  0
 24 25  1  0  0  0  0
 25 26  2  0  0  0  0
 26 18  1  0  0  0  0
M  END
> <Value>
5.219682687859849

> <Relation>
=

> <SourceURI>
mol:CHEMBL2414234

$$$$

Generated by Molecular Materials Informatics

 27 28  0  0  0  0  0  0  0  0999 V2000
   11.2797  -18.0130    0.0000 C   0  0  0  0  0  0  0  0  0  0  0  0
   11.2777  -19.5171    0.0000 C   0  0  0  0  0  0  0  0  0  0  0  0
   12.5771  -20.2678    0.0000 C   0  0  0  0  0  0  0  0  0  0  0  0
   13.8798  -19.5164    0.0000 C   0  0  0  0  0  0  0  0  0  0  0  0
   13.8745  -18.0064    0.0000 C   0  0  0  0  0  0  0  0  0  0  0  0
   12.5738  -17.2624    0.0000 C   0  0  0  0  0  0  0  0  0  0  0  0
   15.1707  -17.2515    0.0000 C   0  0  0  0  0  0  0  0  0  0  0  0
   16.4727  -17.9966    0.0000 C   0  0  0  0  0  0  0  0  0  0  0  0
   17.7687  -17.2417    0.0000 C   0  0  0  0  0  0  0  0  0  0  0  0
   19.0707  -17.9868    0.0000 C   0  0  0  0  0  0  0  0  0  0  0  0
   17.7631  -15.7417    0.0000 O   0  0  0  0  0  0  0  0  0  0  0  0
   20.3667  -17.2320    0.0000 C   0  0  0  0  0  0  0  0  0  0  0  0
   20.3610  -15.7321    0.0000 O   0  0  0  0  0  0  0  0  0  0  0  0
   16.4782  -19.4966    0.0000 N   0  0  0  0  0  0  0  0  0  0  0  0
   21.6687  -17.9770    0.0000 N   0  0  0  0  0  0  0  0  0  0  0  0
   22.9647  -17.2221    0.0000 C   0  0  0  0  0  0  0  0  0  0  0  0
   24.2667  -17.9673    0.0000 C   0  0  0  0  0  0  0  0  0  0  0  0
   22.9592  -15.7222    0.0000 C   0  0  0  0  0  0  0  0  0  0  0  0
   24.2723  -19.4673    0.0000 O   0  0  0  0  0  0  0  0  0  0  0  0
   25.5627  -17.2124    0.0000 O   0  0  0  0  0  0  0  0  0  0  0  0
   26.8646  -17.9573    0.0000 C   0  0  0  0  0  0  0  0  0  0  0  0
   24.2552  -14.9673    0.0000 C   0  0  0  0  0  0  0  0  0  0  0  0
   25.5481  -15.7173    0.0000 C   0  0  0  0  0  0  0  0  0  0  0  0
   26.8436  -14.9637    0.0000 C   0  0  0  0  0  0  0  0  0  0  0  0
   26.8386  -13.4623    0.0000 C   0  0  0  0  0  0  0  0  0  0  0  0
   25.5277  -12.7174    0.0000 C   0  0  0  0  0  0  0  0  0  0  0  0
   24.2378  -13.4752    0.0000 C   0  0  0  0  0  0  0  0  0  0  0  0
  1  2  2  0  0  0  0
  2  3  1  0  0  0  0
  3  4  2  0  0  0  0
  4  5  1  0  0  0  0
  5  6  2  0  0  0  0
  6  1  1  0  0  0  0
  5  7  1  0  0  0  0
  7  8  1  0  0  0  0
  8  9  1  0  0  0  0
  9 10  1  0  0  0  0
  9 11  2  0  0  0  0
 10 12  1  0  0  0  0
 12 13  2  0  0  0  0
  8 14  1  6  0  0  0
 12 15  1  0  0  0  0
 16 15  1  1  0  0  0
 16 17  1  0  0  0  0
 16 18  1  0  0  0  0
 17 19  2  0  0  0  0
 17 20  1  0  0  0  0
 20 21  1  0  0  0  0
 18 22  1  0  0  0  0
 22 23  2  0  0  0  0
 23 24  1  0  0  0  0
 24 25  2  0  0  0  0
 25 26  1  0  0  0  0
 26 27  2  0  0  0  0
 27 22  1  0  0  0  0
M  END
> <Value>
5.153662887870195

> <Relation>
=

> <SourceURI>
mol:CHEMBL2414233

$$$$

Generated by Molecular Materials Informatics

 24 24  0  0  0  0  0  0  0  0999 V2000
   -1.6242  -19.3734    0.0000 C   0  0  0  0  0  0  0  0  0  0  0  0
   -1.6264  -20.8776    0.0000 C   0  0  0  0  0  0  0  0  0  0  0  0
   -0.3268  -21.6283    0.0000 C   0  0  0  0  0  0  0  0  0  0  0  0
    0.9760  -20.8769    0.0000 C   0  0  0  0  0  0  0  0  0  0  0  0
    0.9707  -19.3667    0.0000 C   0  0  0  0  0  0  0  0  0  0  0  0
   -0.3300  -18.6229    0.0000 C   0  0  0  0  0  0  0  0  0  0  0  0
    2.2669  -18.6118    0.0000 C   0  0  0  0  0  0  0  0  0  0  0  0
    3.5687  -19.3571    0.0000 C   0  0  0  0  0  0  0  0  0  0  0  0
    4.8648  -18.6022    0.0000 C   0  0  0  0  0  0  0  0  0  0  0  0
    6.1667  -19.3471    0.0000 C   0  0  0  0  0  0  0  0  0  0  0  0
    4.8592  -17.1022    0.0000 O   0  0  0  0  0  0  0  0  0  0  0  0
    7.4628  -18.5924    0.0000 C   0  0  0  0  0  0  0  0  0  0  0  0
    7.4572  -17.0924    0.0000 O   0  0  0  0  0  0  0  0  0  0  0  0
    3.5743  -20.8571    0.0000 N   0  0  0  0  0  0  0  0  0  0  0  0
    8.7646  -19.3374    0.0000 N   0  0  0  0  0  0  0  0  0  0  0  0
   10.0608  -18.5824    0.0000 C   0  0  0  0  0  0  0  0  0  0  0  0
   11.3626  -19.3276    0.0000 C   0  0  0  0  0  0  0  0  0  0  0  0
   10.0552  -17.0827    0.0000 C   0  0  0  0  0  0  0  0  0  0  0  0
   11.3683  -20.8276    0.0000 O   0  0  0  0  0  0  0  0  0  0  0  0
   12.6588  -18.5727    0.0000 O   0  0  0  0  0  0  0  0  0  0  0  0
   13.9608  -19.3178    0.0000 C   0  0  0  0  0  0  0  0  0  0  0  0
   11.3513  -16.3277    0.0000 C   0  0  0  0  0  0  0  0  0  0  0  0
   12.6532  -17.0727    0.0000 C   0  0  0  0  0  0  0  0  0  0  0  0
   11.3457  -14.8277    0.0000 C   0  0  0  0  0  0  0  0  0  0  0  0
  1  2  2  0  0  0  0
  2  3  1  0  0  0  0
  3  4  2  0  0  0  0
  4  5  1  0  0  0  0
  5  6  2  0  0  0  0
  6  1  1  0  0  0  0
  5  7  1  0  0  0  0
  8  7  1  0  0  0  0
  8  9  1  0  0  0  0
  9 10  1  0  0  0  0
  9 11  2  0  0  0  0
 10 12  1  0  0  0  0
 12 13  2  0  0  0  0
  8 14  1  6  0  0  0
 12 15  1  0  0  0  0
 16 15  1  1  0  0  0
 16 17  1  0  0  0  0
 16 18  1  0  0  0  0
 17 19  2  0  0  0  0
 17 20  1  0  0  0  0
 20 21  1  0  0  0  0
 18 22  1  0  0  0  0
 22 23  1  0  0  0  0
 22 24  1  0  0  0  0
M  END
> <Value>
5.297569463554475

> <Relation>
=

> <SourceURI>
mol:CHEMBL2414232

$$$$

Generated by Molecular Materials Informatics

 33 34  0  0  0  0  0  0  0  0999 V2000
    1.8132  -12.8236    0.0000 C   0  0  0  0  0  0  0  0  0  0  0  0
    1.8110  -14.3280    0.0000 C   0  0  0  0  0  0  0  0  0  0  0  0
    3.1108  -15.0787    0.0000 C   0  0  0  0  0  0  0  0  0  0  0  0
    4.4134  -14.3271    0.0000 C   0  0  0  0  0  0  0  0  0  0  0  0
    4.4081  -12.8171    0.0000 C   0  0  0  0  0  0  0  0  0  0  0  0
    3.1076  -12.0731    0.0000 C   0  0  0  0  0  0  0  0  0  0  0  0
    5.7043  -12.0622    0.0000 C   0  0  0  0  0  0  0  0  0  0  0  0
    7.0063  -12.8071    0.0000 C   0  0  0  0  0  0  0  0  0  0  0  0
    8.3025  -12.0524    0.0000 C   0  0  0  0  0  0  0  0  0  0  0  0
    9.6043  -12.7975    0.0000 C   0  0  0  0  0  0  0  0  0  0  0  0
    8.2968  -10.5524    0.0000 O   0  0  0  0  0  0  0  0  0  0  0  0
   10.9005  -12.0427    0.0000 C   0  0  0  0  0  0  0  0  0  0  0  0
   10.8948  -10.5427    0.0000 O   0  0  0  0  0  0  0  0  0  0  0  0
    7.0119  -14.3071    0.0000 N   0  0  0  0  0  0  0  0  0  0  0  0
    8.3138  -15.0524    0.0000 C   0  0  0  0  0  0  0  0  0  0  0  0
   12.2023  -12.7876    0.0000 N   0  0  0  0  0  0  0  0  0  0  0  0
   13.4987  -12.0327    0.0000 C   0  0  0  0  0  0  0  0  0  0  0  0
   14.8003  -12.7778    0.0000 C   0  0  0  0  0  0  0  0  0  0  0  0
   13.4928  -10.5327    0.0000 C   0  0  0  0  0  0  0  0  0  0  0  0
   14.8061  -14.2778    0.0000 O   0  0  0  0  0  0  0  0  0  0  0  0
   16.0967  -12.0231    0.0000 O   0  0  0  0  0  0  0  0  0  0  0  0
   17.3985  -12.7680    0.0000 C   0  0  0  0  0  0  0  0  0  0  0  0
   14.7908   -9.7860    0.0000 C   0  0  0  0  0  0  0  0  0  0  0  0
   14.7859   -8.2875    0.0000 C   0  0  0  0  0  0  0  0  0  0  0  0
   13.4830   -7.5407    0.0000 C   0  0  0  0  0  0  0  0  0  0  0  0
   12.1825   -8.3038    0.0000 C   0  0  0  0  0  0  0  0  0  0  0  0
   12.1939   -9.8000    0.0000 C   0  0  0  0  0  0  0  0  0  0  0  0
    8.3194  -16.5522    0.0000 O   0  0  0  0  0  0  0  0  0  0  0  0
    9.6099  -14.2975    0.0000 O   0  0  0  0  0  0  0  0  0  0  0  0
    9.6212  -17.2975    0.0000 C   0  0  0  0  0  0  0  0  0  0  0  0
    9.6268  -18.7975    0.0000 C   0  0  0  0  0  0  0  0  0  0  0  0
   10.9174  -16.5426    0.0000 C   0  0  0  0  0  0  0  0  0  0  0  0
   10.8903  -17.9076    0.0000 C   0  0  0  0  0  0  0  0  0  0  0  0
  1  2  2  0  0  0  0
  2  3  1  0  0  0  0
  3  4  2  0  0  0  0
  4  5  1  0  0  0  0
  5  6  2  0  0  0  0
  6  1  1  0  0  0  0
  5  7  1  0  0  0  0
  7  8  1  0  0  0  0
  8  9  1  0  0  0  0
  9 10  1  0  0  0  0
  9 11  2  0  0  0  0
 10 12  1  0  0  0  0
 12 13  2  0  0  0  0
  8 14  1  6  0  0  0
 14 15  1  0  0  0  0
 12 16  1  0  0  0  0
 17 16  1  1  0  0  0
 17 18  1  0  0  0  0
 17 19  1  0  0  0  0
 18 20  2  0  0  0  0
 18 21  1  0  0  0  0
 21 22  1  0  0  0  0
 19 23  2  0  0  0  0
 23 24  1  0  0  0  0
 24 25  2  0  0  0  0
 25 26  1  0  0  0  0
 26 27  2  0  0  0  0
 27 19  1  0  0  0  0
 15 28  1  0  0  0  0
 15 29  2  0  0  0  0
 28 30  1  0  0  0  0
 30 31  1  0  0  0  0
 30 32  1  0  0  0  0
 30 33  1  0  0  0  0
M  END
> <Value>
3.0

> <Relation>
<

> <SourceURI>
mol:CHEMBL2414231

$$$$

Generated by Molecular Materials Informatics

 34 35  0  0  0  0  0  0  0  0999 V2000
   11.4591   -5.5265    0.0000 C   0  0  0  0  0  0  0  0  0  0  0  0
   11.4569   -7.0309    0.0000 C   0  0  0  0  0  0  0  0  0  0  0  0
   12.7567   -7.7816    0.0000 C   0  0  0  0  0  0  0  0  0  0  0  0
   14.0592   -7.0300    0.0000 C   0  0  0  0  0  0  0  0  0  0  0  0
   14.0539   -5.5200    0.0000 C   0  0  0  0  0  0  0  0  0  0  0  0
   12.7534   -4.7760    0.0000 C   0  0  0  0  0  0  0  0  0  0  0  0
   15.3503   -4.7651    0.0000 C   0  0  0  0  0  0  0  0  0  0  0  0
   16.6521   -5.5101    0.0000 C   0  0  0  0  0  0  0  0  0  0  0  0
   17.9483   -4.7552    0.0000 C   0  0  0  0  0  0  0  0  0  0  0  0
   19.2501   -5.5003    0.0000 C   0  0  0  0  0  0  0  0  0  0  0  0
   17.9426   -3.2553    0.0000 O   0  0  0  0  0  0  0  0  0  0  0  0
   20.5463   -4.7454    0.0000 C   0  0  0  0  0  0  0  0  0  0  0  0
   20.5406   -3.2456    0.0000 O   0  0  0  0  0  0  0  0  0  0  0  0
   16.6577   -7.0101    0.0000 N   0  0  0  0  0  0  0  0  0  0  0  0
   17.9596   -7.7552    0.0000 C   0  0  0  0  0  0  0  0  0  0  0  0
   21.8481   -5.4907    0.0000 N   0  0  0  0  0  0  0  0  0  0  0  0
   23.1443   -4.7356    0.0000 C   0  0  0  0  0  0  0  0  0  0  0  0
   24.4461   -5.4807    0.0000 C   0  0  0  0  0  0  0  0  0  0  0  0
   23.1386   -3.2356    0.0000 C   0  0  0  0  0  0  0  0  0  0  0  0
   24.4517   -6.9807    0.0000 O   0  0  0  0  0  0  0  0  0  0  0  0
   25.7424   -4.7260    0.0000 O   0  0  0  0  0  0  0  0  0  0  0  0
   27.0442   -5.4711    0.0000 C   0  0  0  0  0  0  0  0  0  0  0  0
   24.4350   -2.4809    0.0000 C   0  0  0  0  0  0  0  0  0  0  0  0
   25.7279   -3.2309    0.0000 C   0  0  0  0  0  0  0  0  0  0  0  0
   27.0231   -2.4773    0.0000 C   0  0  0  0  0  0  0  0  0  0  0  0
   27.0182   -0.9756    0.0000 C   0  0  0  0  0  0  0  0  0  0  0  0
   25.7073   -0.2309    0.0000 C   0  0  0  0  0  0  0  0  0  0  0  0
   24.4175   -0.9887    0.0000 C   0  0  0  0  0  0  0  0  0  0  0  0
   17.9652   -9.2552    0.0000 O   0  0  0  0  0  0  0  0  0  0  0  0
   19.2557   -7.0003    0.0000 O   0  0  0  0  0  0  0  0  0  0  0  0
   19.2672  -10.0003    0.0000 C   0  0  0  0  0  0  0  0  0  0  0  0
   19.2726  -11.5003    0.0000 C   0  0  0  0  0  0  0  0  0  0  0  0
   20.5632   -9.2454    0.0000 C   0  0  0  0  0  0  0  0  0  0  0  0
   20.4906  -10.5347    0.0000 C   0  0  0  0  0  0  0  0  0  0  0  0
  1  2  2  0  0  0  0
  2  3  1  0  0  0  0
  3  4  2  0  0  0  0
  4  5  1  0  0  0  0
  5  6  2  0  0  0  0
  6  1  1  0  0  0  0
  5  7  1  0  0  0  0
  7  8  1  0  0  0  0
  8  9  1  0  0  0  0
  9 10  1  0  0  0  0
  9 11  2  0  0  0  0
 10 12  1  0  0  0  0
 12 13  2  0  0  0  0
  8 14  1  6  0  0  0
 14 15  1  0  0  0  0
 12 16  1  0  0  0  0
 17 16  1  1  0  0  0
 17 18  1  0  0  0  0
 17 19  1  0  0  0  0
 18 20  2  0  0  0  0
 18 21  1  0  0  0  0
 21 22  1  0  0  0  0
 19 23  1  0  0  0  0
 23 24  2  0  0  0  0
 24 25  1  0  0  0  0
 25 26  2  0  0  0  0
 26 27  1  0  0  0  0
 27 28  2  0  0  0  0
 28 23  1  0  0  0  0
 15 29  1  0  0  0  0
 15 30  2  0  0  0  0
 29 31  1  0  0  0  0
 31 32  1  0  0  0  0
 31 33  1  0  0  0  0
 31 34  1  0  0  0  0
M  END
> <Value>
3.0

> <Relation>
<

> <SourceURI>
mol:CHEMBL2414230

$$$$

Generated by Molecular Materials Informatics

 31 31  0  0  0  0  0  0  0  0999 V2000
   -0.0743   -5.9910    0.0000 C   0  0  0  0  0  0  0  0  0  0  0  0
   -0.0763   -7.4955    0.0000 C   0  0  0  0  0  0  0  0  0  0  0  0
    1.2233   -8.2460    0.0000 C   0  0  0  0  0  0  0  0  0  0  0  0
    2.5258   -7.4944    0.0000 C   0  0  0  0  0  0  0  0  0  0  0  0
    2.5207   -5.9844    0.0000 C   0  0  0  0  0  0  0  0  0  0  0  0
    1.2198   -5.2406    0.0000 C   0  0  0  0  0  0  0  0  0  0  0  0
    3.8167   -5.2297    0.0000 C   0  0  0  0  0  0  0  0  0  0  0  0
    5.1187   -5.9748    0.0000 C   0  0  0  0  0  0  0  0  0  0  0  0
    6.4147   -5.2197    0.0000 C   0  0  0  0  0  0  0  0  0  0  0  0
    7.7167   -5.9648    0.0000 C   0  0  0  0  0  0  0  0  0  0  0  0
    6.4091   -3.7197    0.0000 O   0  0  0  0  0  0  0  0  0  0  0  0
    9.0127   -5.2101    0.0000 C   0  0  0  0  0  0  0  0  0  0  0  0
    9.0071   -3.7101    0.0000 O   0  0  0  0  0  0  0  0  0  0  0  0
    5.1242   -7.4746    0.0000 N   0  0  0  0  0  0  0  0  0  0  0  0
    6.4262   -8.2197    0.0000 C   0  0  0  0  0  0  0  0  0  0  0  0
   10.3147   -5.9550    0.0000 N   0  0  0  0  0  0  0  0  0  0  0  0
   11.6107   -5.2002    0.0000 C   0  0  0  0  0  0  0  0  0  0  0  0
   12.9127   -5.9453    0.0000 C   0  0  0  0  0  0  0  0  0  0  0  0
   11.6052   -3.7003    0.0000 C   0  0  0  0  0  0  0  0  0  0  0  0
   12.9183   -7.4453    0.0000 O   0  0  0  0  0  0  0  0  0  0  0  0
   14.2087   -5.1904    0.0000 O   0  0  0  0  0  0  0  0  0  0  0  0
   15.5106   -5.9353    0.0000 C   0  0  0  0  0  0  0  0  0  0  0  0
   12.9012   -2.9453    0.0000 C   0  0  0  0  0  0  0  0  0  0  0  0
   14.2032   -3.6904    0.0000 C   0  0  0  0  0  0  0  0  0  0  0  0
   12.8956   -1.4454    0.0000 C   0  0  0  0  0  0  0  0  0  0  0  0
    6.4318   -9.7197    0.0000 O   0  0  0  0  0  0  0  0  0  0  0  0
    7.7221   -7.4648    0.0000 O   0  0  0  0  0  0  0  0  0  0  0  0
    7.7336  -10.4648    0.0000 C   0  0  0  0  0  0  0  0  0  0  0  0
    7.7392  -11.9647    0.0000 C   0  0  0  0  0  0  0  0  0  0  0  0
    9.0298   -9.7098    0.0000 C   0  0  0  0  0  0  0  0  0  0  0  0
    8.8587  -11.0369    0.0000 C   0  0  0  0  0  0  0  0  0  0  0  0
  1  2  2  0  0  0  0
  2  3  1  0  0  0  0
  3  4  2  0  0  0  0
  4  5  1  0  0  0  0
  5  6  2  0  0  0  0
  6  1  1  0  0  0  0
  5  7  1  0  0  0  0
  7  8  1  0  0  0  0
  8  9  1  0  0  0  0
  9 10  1  0  0  0  0
  9 11  2  0  0  0  0
 10 12  1  0  0  0  0
 12 13  2  0  0  0  0
  8 14  1  6  0  0  0
 14 15  1  0  0  0  0
 12 16  1  0  0  0  0
 17 16  1  1  0  0  0
 17 18  1  0  0  0  0
 17 19  1  0  0  0  0
 18 20  2  0  0  0  0
 18 21  1  0  0  0  0
 21 22  1  0  0  0  0
 19 23  1  0  0  0  0
 23 24  1  0  0  0  0
 23 25  1  0  0  0  0
 15 26  1  0  0  0  0
 15 27  2  0  0  0  0
 26 28  1  0  0  0  0
 28 29  1  0  0  0  0
 28 30  1  0  0  0  0
 28 31  1  0  0  0  0
M  END
> <Value>
3.0

> <Relation>
<

> <SourceURI>
mol:CHEMBL2414229

$$$$

Generated by Molecular Materials Informatics

 22 23  0  0  0  0  0  0  0  0999 V2000
   15.8729  -10.2488    0.0000 N   0  0  0  0  0  0  0  0  0  0  0  0
   10.6708   -8.7724    0.0000 C   0  0  0  0  0  0  0  0  0  0  0  0
   10.6688  -10.2766    0.0000 C   0  0  0  0  0  0  0  0  0  0  0  0
   11.9684  -11.0274    0.0000 C   0  0  0  0  0  0  0  0  0  0  0  0
   13.2712  -10.2757    0.0000 C   0  0  0  0  0  0  0  0  0  0  0  0
   13.2659   -8.7658    0.0000 C   0  0  0  0  0  0  0  0  0  0  0  0
   11.9653   -8.0218    0.0000 C   0  0  0  0  0  0  0  0  0  0  0  0
   14.5621   -8.0109    0.0000 C   0  0  0  0  0  0  0  0  0  0  0  0
   15.8640   -8.7558    0.0000 C   0  0  0  0  0  0  0  0  0  0  0  0
   17.1602   -8.0011    0.0000 C   0  0  0  0  0  0  0  0  0  0  0  0
   18.4620   -8.7462    0.0000 C   0  0  0  0  0  0  0  0  0  0  0  0
   17.1546   -6.5011    0.0000 O   0  0  0  0  0  0  0  0  0  0  0  0
   19.7584   -7.9913    0.0000 C   0  0  0  0  0  0  0  0  0  0  0  0
   21.0601   -8.7364    0.0000 O   0  0  0  0  0  0  0  0  0  0  0  0
   19.7526   -6.4912    0.0000 O   0  0  0  0  0  0  0  0  0  0  0  0
   22.3565   -7.9815    0.0000 C   0  0  0  0  0  0  0  0  0  0  0  0
   23.6582   -8.7266    0.0000 C   0  0  0  0  0  0  0  0  0  0  0  0
   23.6589  -10.2215    0.0000 C   0  0  0  0  0  0  0  0  0  0  0  0
   24.9595  -10.9663    0.0000 C   0  0  0  0  0  0  0  0  0  0  0  0
   26.2573  -10.2113    0.0000 C   0  0  0  0  0  0  0  0  0  0  0  0
   26.2470   -8.7037    0.0000 C   0  0  0  0  0  0  0  0  0  0  0  0
   24.9455   -7.9653    0.0000 C   0  0  0  0  0  0  0  0  0  0  0  0
  2  3  2  0  0  0  0
  3  4  1  0  0  0  0
  4  5  2  0  0  0  0
  5  6  1  0  0  0  0
  6  7  2  0  0  0  0
  7  2  1  0  0  0  0
  6  8  1  0  0  0  0
  8  9  1  0  0  0  0
  9 10  1  0  0  0  0
 10 11  1  0  0  0  0
 10 12  2  0  0  0  0
 11 13  1  0  0  0  0
 13 14  1  0  0  0  0
 13 15  2  0  0  0  0
 14 16  1  0  0  0  0
  9  1  1  6  0  0  0
 16 17  1  0  0  0  0
 17 18  2  0  0  0  0
 18 19  1  0  0  0  0
 19 20  2  0  0  0  0
 20 21  1  0  0  0  0
 21 22  2  0  0  0  0
 22 17  1  0  0  0  0
M  END
> <Value>
3.148130399270234

> <Relation>
=

> <SourceURI>
mol:CHEMBL2414228

$$$$

Generated by Molecular Materials Informatics

 16 16  0  0  0  0  0  0  0  0999 V2000
    0.7029  -10.0594    0.0000 C   0  0  0  0  0  0  0  0  0  0  0  0
    0.7007  -11.5636    0.0000 C   0  0  0  0  0  0  0  0  0  0  0  0
    2.0004  -12.3143    0.0000 C   0  0  0  0  0  0  0  0  0  0  0  0
    3.3030  -11.5627    0.0000 C   0  0  0  0  0  0  0  0  0  0  0  0
    3.2977  -10.0528    0.0000 C   0  0  0  0  0  0  0  0  0  0  0  0
    1.9971   -9.3088    0.0000 C   0  0  0  0  0  0  0  0  0  0  0  0
    4.5940   -9.2979    0.0000 C   0  0  0  0  0  0  0  0  0  0  0  0
    5.8958  -10.0428    0.0000 C   0  0  0  0  0  0  0  0  0  0  0  0
    7.1921   -9.2880    0.0000 C   0  0  0  0  0  0  0  0  0  0  0  0
    8.4937  -10.0332    0.0000 C   0  0  0  0  0  0  0  0  0  0  0  0
    7.1864   -7.7882    0.0000 O   0  0  0  0  0  0  0  0  0  0  0  0
    9.7900   -9.2782    0.0000 C   0  0  0  0  0  0  0  0  0  0  0  0
   11.0917  -10.0233    0.0000 O   0  0  0  0  0  0  0  0  0  0  0  0
    9.7843   -7.7784    0.0000 O   0  0  0  0  0  0  0  0  0  0  0  0
   12.3881   -9.2684    0.0000 C   0  0  0  0  0  0  0  0  0  0  0  0
    5.9015  -11.5429    0.0000 N   0  0  0  0  0  0  0  0  0  0  0  0
  1  2  2  0  0  0  0
  2  3  1  0  0  0  0
  3  4  2  0  0  0  0
  4  5  1  0  0  0  0
  5  6  2  0  0  0  0
  6  1  1  0  0  0  0
  5  7  1  0  0  0  0
  7  8  1  0  0  0  0
  8  9  1  0  0  0  0
  9 10  1  0  0  0  0
  9 11  2  0  0  0  0
 10 12  1  0  0  0  0
 12 13  1  0  0  0  0
 12 14  2  0  0  0  0
 13 15  1  0  0  0  0
  8 16  1  6  0  0  0
M  END
> <Value>
3.0070049015686586

> <Relation>
=

> <SourceURI>
mol:CHEMBL2414227

$$$$

Generated by Molecular Materials Informatics

 29 30  0  0  0  0  0  0  0  0999 V2000
    8.0503   -1.5981    0.0000 C   0  0  0  0  0  0  0  0  0  0  0  0
    8.0483   -3.1026    0.0000 C   0  0  0  0  0  0  0  0  0  0  0  0
    9.3478   -3.8532    0.0000 C   0  0  0  0  0  0  0  0  0  0  0  0
   10.6505   -3.1017    0.0000 C   0  0  0  0  0  0  0  0  0  0  0  0
   10.6452   -1.5916    0.0000 C   0  0  0  0  0  0  0  0  0  0  0  0
    9.3445   -0.8477    0.0000 C   0  0  0  0  0  0  0  0  0  0  0  0
   11.9414   -0.8368    0.0000 C   0  0  0  0  0  0  0  0  0  0  0  0
   13.2434   -1.5819    0.0000 C   0  0  0  0  0  0  0  0  0  0  0  0
   14.5394   -0.8268    0.0000 C   0  0  0  0  0  0  0  0  0  0  0  0
   15.8413   -1.5721    0.0000 C   0  0  0  0  0  0  0  0  0  0  0  0
   14.5337    0.6730    0.0000 O   0  0  0  0  0  0  0  0  0  0  0  0
   17.1373   -0.8172    0.0000 C   0  0  0  0  0  0  0  0  0  0  0  0
   18.4393   -1.5623    0.0000 O   0  0  0  0  0  0  0  0  0  0  0  0
   17.1317    0.6828    0.0000 O   0  0  0  0  0  0  0  0  0  0  0  0
   19.7353   -0.8074    0.0000 C   0  0  0  0  0  0  0  0  0  0  0  0
   13.2488   -3.0819    0.0000 N   0  0  0  0  0  0  0  0  0  0  0  0
   14.5508   -3.8268    0.0000 C   0  0  0  0  0  0  0  0  0  0  0  0
   21.0373   -1.5525    0.0000 C   0  0  0  0  0  0  0  0  0  0  0  0
   21.0380   -3.0474    0.0000 C   0  0  0  0  0  0  0  0  0  0  0  0
   22.3382   -3.7921    0.0000 C   0  0  0  0  0  0  0  0  0  0  0  0
   23.6364   -3.0372    0.0000 C   0  0  0  0  0  0  0  0  0  0  0  0
   23.6257   -1.5296    0.0000 C   0  0  0  0  0  0  0  0  0  0  0  0
   22.3246   -0.7914    0.0000 C   0  0  0  0  0  0  0  0  0  0  0  0
   14.5565   -5.3268    0.0000 O   0  0  0  0  0  0  0  0  0  0  0  0
   15.8468   -3.0721    0.0000 O   0  0  0  0  0  0  0  0  0  0  0  0
   15.8583   -6.0719    0.0000 C   0  0  0  0  0  0  0  0  0  0  0  0
   15.8639   -7.5719    0.0000 C   0  0  0  0  0  0  0  0  0  0  0  0
   17.1544   -5.3172    0.0000 C   0  0  0  0  0  0  0  0  0  0  0  0
   17.2030   -6.8337    0.0000 C   0  0  0  0  0  0  0  0  0  0  0  0
  1  2  2  0  0  0  0
  2  3  1  0  0  0  0
  3  4  2  0  0  0  0
  4  5  1  0  0  0  0
  5  6  2  0  0  0  0
  6  1  1  0  0  0  0
  5  7  1  0  0  0  0
  7  8  1  0  0  0  0
  8  9  1  0  0  0  0
  9 10  1  0  0  0  0
  9 11  2  0  0  0  0
 10 12  1  0  0  0  0
 12 13  1  0  0  0  0
 12 14  2  0  0  0  0
 13 15  1  0  0  0  0
  8 16  1  6  0  0  0
 16 17  1  0  0  0  0
 15 18  1  0  0  0  0
 18 19  2  0  0  0  0
 19 20  1  0  0  0  0
 20 21  2  0  0  0  0
 21 22  1  0  0  0  0
 22 23  2  0  0  0  0
 23 18  1  0  0  0  0
 17 24  1  0  0  0  0
 17 25  2  0  0  0  0
 24 26  1  0  0  0  0
 26 27  1  0  0  0  0
 26 28  1  0  0  0  0
 26 29  1  0  0  0  0
M  END
> <Value>
3.0

> <Relation>
<

> <SourceURI>
mol:CHEMBL2414226

$$$$

Generated by Molecular Materials Informatics

 23 23  0  0  0  0  0  0  0  0999 V2000
    0.0073   -2.2066    0.0000 C   0  0  0  0  0  0  0  0  0  0  0  0
    0.0053   -3.7108    0.0000 C   0  0  0  0  0  0  0  0  0  0  0  0
    1.3048   -4.4615    0.0000 C   0  0  0  0  0  0  0  0  0  0  0  0
    2.6075   -3.7100    0.0000 C   0  0  0  0  0  0  0  0  0  0  0  0
    2.6024   -2.2000    0.0000 C   0  0  0  0  0  0  0  0  0  0  0  0
    1.3015   -1.4562    0.0000 C   0  0  0  0  0  0  0  0  0  0  0  0
    3.8984   -1.4451    0.0000 C   0  0  0  0  0  0  0  0  0  0  0  0
    5.2004   -2.1902    0.0000 C   0  0  0  0  0  0  0  0  0  0  0  0
    6.4964   -1.4353    0.0000 C   0  0  0  0  0  0  0  0  0  0  0  0
    7.7984   -2.1804    0.0000 C   0  0  0  0  0  0  0  0  0  0  0  0
    6.4908    0.0647    0.0000 O   0  0  0  0  0  0  0  0  0  0  0  0
    9.0944   -1.4255    0.0000 C   0  0  0  0  0  0  0  0  0  0  0  0
   10.3964   -2.1706    0.0000 O   0  0  0  0  0  0  0  0  0  0  0  0
    9.0887    0.0745    0.0000 O   0  0  0  0  0  0  0  0  0  0  0  0
   11.6924   -1.4159    0.0000 C   0  0  0  0  0  0  0  0  0  0  0  0
    5.2059   -3.6902    0.0000 N   0  0  0  0  0  0  0  0  0  0  0  0
    6.5078   -4.4353    0.0000 C   0  0  0  0  0  0  0  0  0  0  0  0
    6.5135   -5.9353    0.0000 O   0  0  0  0  0  0  0  0  0  0  0  0
    7.8038   -3.6804    0.0000 O   0  0  0  0  0  0  0  0  0  0  0  0
    7.8153   -6.6802    0.0000 C   0  0  0  0  0  0  0  0  0  0  0  0
    7.8209   -8.1802    0.0000 C   0  0  0  0  0  0  0  0  0  0  0  0
    9.1115   -5.9253    0.0000 C   0  0  0  0  0  0  0  0  0  0  0  0
    8.9102   -7.3055    0.0000 C   0  0  0  0  0  0  0  0  0  0  0  0
  1  2  2  0  0  0  0
  2  3  1  0  0  0  0
  3  4  2  0  0  0  0
  4  5  1  0  0  0  0
  5  6  2  0  0  0  0
  6  1  1  0  0  0  0
  5  7  1  0  0  0  0
  8  7  1  0  0  0  0
  8  9  1  0  0  0  0
  9 10  1  0  0  0  0
  9 11  2  0  0  0  0
 10 12  1  0  0  0  0
 12 13  1  0  0  0  0
 12 14  2  0  0  0  0
 13 15  1  0  0  0  0
  8 16  1  6  0  0  0
 16 17  1  0  0  0  0
 17 18  1  0  0  0  0
 17 19  2  0  0  0  0
 18 20  1  0  0  0  0
 20 21  1  0  0  0  0
 20 22  1  0  0  0  0
 20 23  1  0  0  0  0
M  END
> <Value>
3.0

> <Relation>
<

> <SourceURI>
mol:CHEMBL2414225

$$$$

Generated by Molecular Materials Informatics

 28 29  0  0  0  0  0  0  0  0999 V2000
    5.2815    1.8840    0.0000 O   0  0  0  0  0  0  0  0  0  0  0  0
    5.2892    0.3840    0.0000 S   0  0  0  0  0  0  0  0  0  0  0  0
    6.5843    1.1406    0.0000 O   0  0  0  0  0  0  0  0  0  0  0  0
    1.5467   -0.9141    0.0000 C   0  0  0  0  0  0  0  0  0  0  0  0
    3.0434   -0.9161    0.0000 C   0  0  0  0  0  0  0  0  0  0  0  0
    3.7903    0.3768    0.0000 C   0  0  0  0  0  0  0  0  0  0  0  0
    3.0425    1.6729    0.0000 C   0  0  0  0  0  0  0  0  0  0  0  0
    1.5401    1.6678    0.0000 C   0  0  0  0  0  0  0  0  0  0  0  0
    0.7998    0.3737    0.0000 C   0  0  0  0  0  0  0  0  0  0  0  0
    6.0399   -0.9227    0.0000 N   0  0  0  0  0  0  0  0  0  0  0  0
    5.4206   -2.2954    0.0000 C   0  0  0  0  0  0  0  0  0  0  0  0
    6.5383   -3.3060    0.0000 C   0  0  0  0  0  0  0  0  0  0  0  0
    7.8450   -2.5553    0.0000 C   0  0  0  0  0  0  0  0  0  0  0  0
    7.5346   -1.0806    0.0000 C   0  0  0  0  0  0  0  0  0  0  0  0
    8.5395    0.0329    0.0000 C   0  0  0  0  0  0  0  0  0  0  0  0
   10.0065   -0.2808    0.0000 N   0  0  0  0  0  0  0  0  0  0  0  0
    8.0779    1.4600    0.0000 O   0  0  0  0  0  0  0  0  0  0  0  0
   10.4682   -1.7080    0.0000 O   0  0  0  0  0  0  0  0  0  0  0  0
    6.5528   -4.8053    0.0000 N   0  0  0  0  0  0  0  0  0  0  0  0
    5.2609   -5.5676    0.0000 C   0  0  0  0  0  0  0  0  0  0  0  0
    5.2752   -7.0674    0.0000 O   0  0  0  0  0  0  0  0  0  0  0  0
    3.9547   -4.8301    0.0000 C   0  0  0  0  0  0  0  0  0  0  0  0
    2.6629   -5.5924    0.0000 N   0  0  0  0  0  0  0  0  0  0  0  0
    1.3569   -4.8548    0.0000 C   0  0  0  0  0  0  0  0  0  0  0  0
    0.0650   -5.6171    0.0000 C   0  0  0  0  0  0  0  0  0  0  0  0
    1.3426   -3.3548    0.0000 O   0  0  0  0  0  0  0  0  0  0  0  0
   -1.2412   -4.8796    0.0000 N   0  0  0  0  0  0  0  0  0  0  0  0
    0.0793   -7.1170    0.0000 C   0  0  0  0  0  0  0  0  0  0  0  0
  2  1  2  0  0  0  0
  3  2  2  0  0  0  0
  4  5  2  0  0  0  0
  5  6  1  0  0  0  0
  6  7  2  0  0  0  0
  7  8  1  0  0  0  0
  8  9  2  0  0  0  0
  9  4  1  0  0  0  0
  6  2  1  0  0  0  0
  2 10  1  0  0  0  0
 10 11  1  0  0  0  0
 11 12  1  0  0  0  0
 12 13  1  0  0  0  0
 13 14  1  0  0  0  0
 14 10  1  0  0  0  0
 14 15  1  6  0  0  0
 15 16  1  0  0  0  0
 15 17  2  0  0  0  0
 16 18  1  0  0  0  0
 12 19  1  6  0  0  0
 19 20  1  0  0  0  0
 20 21  2  0  0  0  0
 20 22  1  0  0  0  0
 22 23  1  0  0  0  0
 23 24  1  0  0  0  0
 24 25  1  0  0  0  0
 24 26  2  0  0  0  0
 25 27  1  0  0  0  0
 25 28  1  6  0  0  0
M  END
> <Value>
4.0

> <Relation>
<

> <SourceURI>
mol:CHEMBL3261742

$$$$

Generated by Molecular Materials Informatics

 30 31  0  0  0  0  0  0  0  0999 V2000
   13.1687    1.5084    0.0000 O   0  0  0  0  0  0  0  0  0  0  0  0
   13.1762    0.0084    0.0000 S   0  0  0  0  0  0  0  0  0  0  0  0
   14.4714    0.7650    0.0000 O   0  0  0  0  0  0  0  0  0  0  0  0
    9.4337   -1.2897    0.0000 C   0  0  0  0  0  0  0  0  0  0  0  0
   10.9304   -1.2917    0.0000 C   0  0  0  0  0  0  0  0  0  0  0  0
   11.6773    0.0014    0.0000 C   0  0  0  0  0  0  0  0  0  0  0  0
   10.9295    1.2975    0.0000 C   0  0  0  0  0  0  0  0  0  0  0  0
    9.4271    1.2923    0.0000 C   0  0  0  0  0  0  0  0  0  0  0  0
    8.6870   -0.0019    0.0000 C   0  0  0  0  0  0  0  0  0  0  0  0
   13.9270   -1.2982    0.0000 N   0  0  0  0  0  0  0  0  0  0  0  0
   13.3076   -2.6710    0.0000 C   0  0  0  0  0  0  0  0  0  0  0  0
   14.4255   -3.6816    0.0000 C   0  0  0  0  0  0  0  0  0  0  0  0
   15.7322   -2.9309    0.0000 C   0  0  0  0  0  0  0  0  0  0  0  0
   15.4216   -1.4562    0.0000 C   0  0  0  0  0  0  0  0  0  0  0  0
   16.4268   -0.3428    0.0000 C   0  0  0  0  0  0  0  0  0  0  0  0
   17.8936   -0.6565    0.0000 N   0  0  0  0  0  0  0  0  0  0  0  0
   15.9650    1.0844    0.0000 O   0  0  0  0  0  0  0  0  0  0  0  0
   18.3554   -2.0836    0.0000 O   0  0  0  0  0  0  0  0  0  0  0  0
   14.4398   -5.1807    0.0000 N   0  0  0  0  0  0  0  0  0  0  0  0
   13.1480   -5.9432    0.0000 C   0  0  0  0  0  0  0  0  0  0  0  0
   13.1623   -7.4430    0.0000 O   0  0  0  0  0  0  0  0  0  0  0  0
   11.8418   -5.2055    0.0000 C   0  0  0  0  0  0  0  0  0  0  0  0
   10.5501   -5.9680    0.0000 N   0  0  0  0  0  0  0  0  0  0  0  0
    9.2439   -5.2303    0.0000 C   0  0  0  0  0  0  0  0  0  0  0  0
    7.9521   -5.9927    0.0000 C   0  0  0  0  0  0  0  0  0  0  0  0
    9.2296   -3.7304    0.0000 O   0  0  0  0  0  0  0  0  0  0  0  0
    6.6459   -5.2550    0.0000 N   0  0  0  0  0  0  0  0  0  0  0  0
    7.9664   -7.4926    0.0000 C   0  0  0  0  0  0  0  0  0  0  0  0
    6.6746   -8.2549    0.0000 C   0  0  0  0  0  0  0  0  0  0  0  0
    9.2726   -8.2301    0.0000 C   0  0  0  0  0  0  0  0  0  0  0  0
  2  1  2  0  0  0  0
  3  2  2  0  0  0  0
  4  5  2  0  0  0  0
  5  6  1  0  0  0  0
  6  7  2  0  0  0  0
  7  8  1  0  0  0  0
  8  9  2  0  0  0  0
  9  4  1  0  0  0  0
  6  2  1  0  0  0  0
  2 10  1  0  0  0  0
 10 11  1  0  0  0  0
 11 12  1  0  0  0  0
 12 13  1  0  0  0  0
 13 14  1  0  0  0  0
 14 10  1  0  0  0  0
 14 15  1  6  0  0  0
 15 16  1  0  0  0  0
 15 17  2  0  0  0  0
 16 18  1  0  0  0  0
 12 19  1  6  0  0  0
 19 20  1  0  0  0  0
 20 21  2  0  0  0  0
 20 22  1  0  0  0  0
 22 23  1  0  0  0  0
 23 24  1  0  0  0  0
 24 25  1  0  0  0  0
 24 26  2  0  0  0  0
 25 27  1  0  0  0  0
 25 28  1  6  0  0  0
 28 29  1  0  0  0  0
 28 30  1  0  0  0  0
M  END
> <Value>
4.0

> <Relation>
<

> <SourceURI>
mol:CHEMBL3261743

$$$$

Generated by Molecular Materials Informatics

 31 32  0  0  0  0  0  0  0  0999 V2000
   21.6849    1.5111    0.0000 O   0  0  0  0  0  0  0  0  0  0  0  0
   21.6926    0.0111    0.0000 S   0  0  0  0  0  0  0  0  0  0  0  0
   22.9878    0.7676    0.0000 O   0  0  0  0  0  0  0  0  0  0  0  0
   17.9501   -1.2870    0.0000 C   0  0  0  0  0  0  0  0  0  0  0  0
   19.4468   -1.2892    0.0000 C   0  0  0  0  0  0  0  0  0  0  0  0
   20.1937    0.0040    0.0000 C   0  0  0  0  0  0  0  0  0  0  0  0
   19.4459    1.3000    0.0000 C   0  0  0  0  0  0  0  0  0  0  0  0
   17.9435    1.2949    0.0000 C   0  0  0  0  0  0  0  0  0  0  0  0
   17.2033    0.0007    0.0000 C   0  0  0  0  0  0  0  0  0  0  0  0
   22.4434   -1.2956    0.0000 N   0  0  0  0  0  0  0  0  0  0  0  0
   21.8241   -2.6682    0.0000 C   0  0  0  0  0  0  0  0  0  0  0  0
   22.9417   -3.6791    0.0000 C   0  0  0  0  0  0  0  0  0  0  0  0
   24.2484   -2.9281    0.0000 C   0  0  0  0  0  0  0  0  0  0  0  0
   23.9381   -1.4535    0.0000 C   0  0  0  0  0  0  0  0  0  0  0  0
   24.9430   -0.3400    0.0000 C   0  0  0  0  0  0  0  0  0  0  0  0
   26.4100   -0.6537    0.0000 N   0  0  0  0  0  0  0  0  0  0  0  0
   24.4814    1.0871    0.0000 O   0  0  0  0  0  0  0  0  0  0  0  0
   26.8716   -2.0808    0.0000 O   0  0  0  0  0  0  0  0  0  0  0  0
   22.9562   -5.1781    0.0000 N   0  0  0  0  0  0  0  0  0  0  0  0
   21.6644   -5.9404    0.0000 C   0  0  0  0  0  0  0  0  0  0  0  0
   21.6787   -7.4405    0.0000 O   0  0  0  0  0  0  0  0  0  0  0  0
   20.3582   -5.2029    0.0000 C   0  0  0  0  0  0  0  0  0  0  0  0
   19.0663   -5.9652    0.0000 N   0  0  0  0  0  0  0  0  0  0  0  0
   17.7603   -5.2277    0.0000 C   0  0  0  0  0  0  0  0  0  0  0  0
   16.4685   -5.9900    0.0000 C   0  0  0  0  0  0  0  0  0  0  0  0
   17.7460   -3.7277    0.0000 O   0  0  0  0  0  0  0  0  0  0  0  0
   15.1623   -5.2525    0.0000 N   0  0  0  0  0  0  0  0  0  0  0  0
   16.4828   -7.4900    0.0000 C   0  0  0  0  0  0  0  0  0  0  0  0
   15.1909   -8.2523    0.0000 C   0  0  0  0  0  0  0  0  0  0  0  0
   15.2053   -9.7521    0.0000 C   0  0  0  0  0  0  0  0  0  0  0  0
   13.8848   -7.5148    0.0000 C   0  0  0  0  0  0  0  0  0  0  0  0
  2  1  2  0  0  0  0
  3  2  2  0  0  0  0
  4  5  2  0  0  0  0
  5  6  1  0  0  0  0
  6  7  2  0  0  0  0
  7  8  1  0  0  0  0
  8  9  2  0  0  0  0
  9  4  1  0  0  0  0
  6  2  1  0  0  0  0
  2 10  1  0  0  0  0
 10 11  1  0  0  0  0
 11 12  1  0  0  0  0
 12 13  1  0  0  0  0
 13 14  1  0  0  0  0
 14 10  1  0  0  0  0
 14 15  1  6  0  0  0
 15 16  1  0  0  0  0
 15 17  2  0  0  0  0
 16 18  1  0  0  0  0
 12 19  1  6  0  0  0
 19 20  1  0  0  0  0
 20 21  2  0  0  0  0
 20 22  1  0  0  0  0
 22 23  1  0  0  0  0
 23 24  1  0  0  0  0
 24 25  1  0  0  0  0
 24 26  2  0  0  0  0
 25 27  1  0  0  0  0
 25 28  1  6  0  0  0
 28 29  1  0  0  0  0
 29 30  1  0  0  0  0
 29 31  1  0  0  0  0
M  END
> <Value>
4.084547398311521

> <Relation>
=

> <SourceURI>
mol:CHEMBL3261744

$$$$

Generated by Molecular Materials Informatics

 31 32  0  0  0  0  0  0  0  0999 V2000
   30.8497    1.7463    0.0000 O   0  0  0  0  0  0  0  0  0  0  0  0
   30.8572    0.2463    0.0000 S   0  0  0  0  0  0  0  0  0  0  0  0
   32.1525    1.0029    0.0000 O   0  0  0  0  0  0  0  0  0  0  0  0
   27.1147   -1.0518    0.0000 C   0  0  0  0  0  0  0  0  0  0  0  0
   28.6116   -1.0538    0.0000 C   0  0  0  0  0  0  0  0  0  0  0  0
   29.3585    0.2394    0.0000 C   0  0  0  0  0  0  0  0  0  0  0  0
   28.6107    1.5354    0.0000 C   0  0  0  0  0  0  0  0  0  0  0  0
   27.1083    1.5303    0.0000 C   0  0  0  0  0  0  0  0  0  0  0  0
   26.3680    0.2361    0.0000 C   0  0  0  0  0  0  0  0  0  0  0  0
   31.6081   -1.0602    0.0000 N   0  0  0  0  0  0  0  0  0  0  0  0
   30.9886   -2.4330    0.0000 C   0  0  0  0  0  0  0  0  0  0  0  0
   32.1065   -3.4437    0.0000 C   0  0  0  0  0  0  0  0  0  0  0  0
   33.4132   -2.6927    0.0000 C   0  0  0  0  0  0  0  0  0  0  0  0
   33.1028   -1.2183    0.0000 C   0  0  0  0  0  0  0  0  0  0  0  0
   34.1077   -0.1048    0.0000 C   0  0  0  0  0  0  0  0  0  0  0  0
   35.5747   -0.4185    0.0000 N   0  0  0  0  0  0  0  0  0  0  0  0
   33.6461    1.3223    0.0000 O   0  0  0  0  0  0  0  0  0  0  0  0
   36.0364   -1.8456    0.0000 O   0  0  0  0  0  0  0  0  0  0  0  0
   32.1208   -4.9428    0.0000 N   0  0  0  0  0  0  0  0  0  0  0  0
   30.8291   -5.7052    0.0000 C   0  0  0  0  0  0  0  0  0  0  0  0
   30.8434   -7.2051    0.0000 O   0  0  0  0  0  0  0  0  0  0  0  0
   29.5229   -4.9675    0.0000 C   0  0  0  0  0  0  0  0  0  0  0  0
   28.2311   -5.7300    0.0000 N   0  0  0  0  0  0  0  0  0  0  0  0
   26.9249   -4.9923    0.0000 C   0  0  0  0  0  0  0  0  0  0  0  0
   25.6332   -5.7548    0.0000 C   0  0  0  0  0  0  0  0  0  0  0  0
   26.9106   -3.4925    0.0000 O   0  0  0  0  0  0  0  0  0  0  0  0
   24.3270   -5.0171    0.0000 N   0  0  0  0  0  0  0  0  0  0  0  0
   25.6475   -7.2546    0.0000 C   0  0  0  0  0  0  0  0  0  0  0  0
   24.3557   -8.0169    0.0000 C   0  0  0  0  0  0  0  0  0  0  0  0
   26.9535   -7.9922    0.0000 C   0  0  0  0  0  0  0  0  0  0  0  0
   24.3700   -9.5169    0.0000 C   0  0  0  0  0  0  0  0  0  0  0  0
  2  1  2  0  0  0  0
  3  2  2  0  0  0  0
  4  5  2  0  0  0  0
  5  6  1  0  0  0  0
  6  7  2  0  0  0  0
  7  8  1  0  0  0  0
  8  9  2  0  0  0  0
  9  4  1  0  0  0  0
  6  2  1  0  0  0  0
  2 10  1  0  0  0  0
 10 11  1  0  0  0  0
 11 12  1  0  0  0  0
 12 13  1  0  0  0  0
 13 14  1  0  0  0  0
 14 10  1  0  0  0  0
 14 15  1  6  0  0  0
 15 16  1  0  0  0  0
 15 17  2  0  0  0  0
 16 18  1  0  0  0  0
 12 19  1  6  0  0  0
 19 20  1  0  0  0  0
 20 21  2  0  0  0  0
 20 22  1  0  0  0  0
 22 23  1  0  0  0  0
 23 24  1  0  0  0  0
 24 25  1  0  0  0  0
 24 26  2  0  0  0  0
 25 27  1  6  0  0  0
 25 28  1  0  0  0  0
 28 29  1  0  0  0  0
 28 30  1  1  0  0  0
 29 31  1  0  0  0  0
M  END
> <Value>
4.0

> <Relation>
<

> <SourceURI>
mol:CHEMBL3261745

$$$$

Generated by Molecular Materials Informatics

 34 36  0  0  0  0  0  0  0  0999 V2000
    5.9908   -5.2314    0.0000 O   0  0  0  0  0  0  0  0  0  0  0  0
    5.9983   -6.7314    0.0000 S   0  0  0  0  0  0  0  0  0  0  0  0
    7.2937   -5.9748    0.0000 O   0  0  0  0  0  0  0  0  0  0  0  0
    2.2558   -8.0295    0.0000 C   0  0  0  0  0  0  0  0  0  0  0  0
    3.7525   -8.0315    0.0000 C   0  0  0  0  0  0  0  0  0  0  0  0
    4.4994   -6.7384    0.0000 C   0  0  0  0  0  0  0  0  0  0  0  0
    3.7516   -5.4423    0.0000 C   0  0  0  0  0  0  0  0  0  0  0  0
    2.2492   -5.4475    0.0000 C   0  0  0  0  0  0  0  0  0  0  0  0
    1.5091   -6.7417    0.0000 C   0  0  0  0  0  0  0  0  0  0  0  0
    6.7490   -8.0380    0.0000 N   0  0  0  0  0  0  0  0  0  0  0  0
    6.1297   -9.4108    0.0000 C   0  0  0  0  0  0  0  0  0  0  0  0
    7.2476  -10.4214    0.0000 C   0  0  0  0  0  0  0  0  0  0  0  0
    8.5543   -9.6705    0.0000 C   0  0  0  0  0  0  0  0  0  0  0  0
    8.2437   -8.1960    0.0000 C   0  0  0  0  0  0  0  0  0  0  0  0
    9.2489   -7.0826    0.0000 C   0  0  0  0  0  0  0  0  0  0  0  0
   10.7157   -7.3963    0.0000 N   0  0  0  0  0  0  0  0  0  0  0  0
    8.7871   -5.6554    0.0000 O   0  0  0  0  0  0  0  0  0  0  0  0
   11.1775   -8.8234    0.0000 O   0  0  0  0  0  0  0  0  0  0  0  0
    7.2619  -11.9205    0.0000 N   0  0  0  0  0  0  0  0  0  0  0  0
    5.9700  -12.6828    0.0000 C   0  0  0  0  0  0  0  0  0  0  0  0
    5.9844  -14.1828    0.0000 O   0  0  0  0  0  0  0  0  0  0  0  0
    4.6641  -11.9453    0.0000 C   0  0  0  0  0  0  0  0  0  0  0  0
    3.3722  -12.7076    0.0000 N   0  0  0  0  0  0  0  0  0  0  0  0
    2.0660  -11.9701    0.0000 C   0  0  0  0  0  0  0  0  0  0  0  0
    0.7742  -12.7324    0.0000 C   0  0  0  0  0  0  0  0  0  0  0  0
    2.0517  -10.4702    0.0000 O   0  0  0  0  0  0  0  0  0  0  0  0
   -0.5320  -11.9948    0.0000 N   0  0  0  0  0  0  0  0  0  0  0  0
    0.7885  -14.2324    0.0000 C   0  0  0  0  0  0  0  0  0  0  0  0
   -0.5034  -14.9947    0.0000 C   0  0  0  0  0  0  0  0  0  0  0  0
   -1.8081  -14.2627    0.0000 C   0  0  0  0  0  0  0  0  0  0  0  0
   -3.0860  -15.0239    0.0000 C   0  0  0  0  0  0  0  0  0  0  0  0
   -3.0843  -16.5253    0.0000 C   0  0  0  0  0  0  0  0  0  0  0  0
   -1.7703  -17.2625    0.0000 C   0  0  0  0  0  0  0  0  0  0  0  0
   -0.4848  -16.4971    0.0000 C   0  0  0  0  0  0  0  0  0  0  0  0
  2  1  2  0  0  0  0
  3  2  2  0  0  0  0
  4  5  2  0  0  0  0
  5  6  1  0  0  0  0
  6  7  2  0  0  0  0
  7  8  1  0  0  0  0
  8  9  2  0  0  0  0
  9  4  1  0  0  0  0
  6  2  1  0  0  0  0
  2 10  1  0  0  0  0
 10 11  1  0  0  0  0
 11 12  1  0  0  0  0
 12 13  1  0  0  0  0
 13 14  1  0  0  0  0
 14 10  1  0  0  0  0
 14 15  1  6  0  0  0
 15 16  1  0  0  0  0
 15 17  2  0  0  0  0
 16 18  1  0  0  0  0
 12 19  1  6  0  0  0
 19 20  1  0  0  0  0
 20 21  2  0  0  0  0
 20 22  1  0  0  0  0
 22 23  1  0  0  0  0
 23 24  1  0  0  0  0
 24 25  1  0  0  0  0
 24 26  2  0  0  0  0
 25 27  1  0  0  0  0
 25 28  1  6  0  0  0
 28 29  1  0  0  0  0
 29 30  2  0  0  0  0
 30 31  1  0  0  0  0
 31 32  2  0  0  0  0
 32 33  1  0  0  0  0
 33 34  2  0  0  0  0
 34 29  1  0  0  0  0
M  END
> <Value>
4.024706084643793

> <Relation>
=

> <SourceURI>
mol:CHEMBL3261746

$$$$

Generated by Molecular Materials Informatics

 31 32  0  0  0  0  0  0  0  0999 V2000
   12.0496   -5.7321    0.0000 O   0  0  0  0  0  0  0  0  0  0  0  0
   12.0571   -7.2321    0.0000 S   0  0  0  0  0  0  0  0  0  0  0  0
   13.3525   -6.4755    0.0000 O   0  0  0  0  0  0  0  0  0  0  0  0
    8.3146   -8.5302    0.0000 C   0  0  0  0  0  0  0  0  0  0  0  0
    9.8113   -8.5322    0.0000 C   0  0  0  0  0  0  0  0  0  0  0  0
   10.5584   -7.2390    0.0000 C   0  0  0  0  0  0  0  0  0  0  0  0
    9.8106   -5.9430    0.0000 C   0  0  0  0  0  0  0  0  0  0  0  0
    8.3082   -5.9481    0.0000 C   0  0  0  0  0  0  0  0  0  0  0  0
    7.5679   -7.2423    0.0000 C   0  0  0  0  0  0  0  0  0  0  0  0
   12.8081   -8.5386    0.0000 N   0  0  0  0  0  0  0  0  0  0  0  0
   12.1886   -9.9114    0.0000 C   0  0  0  0  0  0  0  0  0  0  0  0
   13.3064  -10.9221    0.0000 C   0  0  0  0  0  0  0  0  0  0  0  0
   14.6131  -10.1711    0.0000 C   0  0  0  0  0  0  0  0  0  0  0  0
   14.3027   -8.6967    0.0000 C   0  0  0  0  0  0  0  0  0  0  0  0
   15.3077   -7.5832    0.0000 C   0  0  0  0  0  0  0  0  0  0  0  0
   16.7745   -7.8969    0.0000 N   0  0  0  0  0  0  0  0  0  0  0  0
   14.8461   -6.1561    0.0000 O   0  0  0  0  0  0  0  0  0  0  0  0
   17.2363   -9.3240    0.0000 O   0  0  0  0  0  0  0  0  0  0  0  0
   13.3207  -12.4212    0.0000 N   0  0  0  0  0  0  0  0  0  0  0  0
   12.0290  -13.1835    0.0000 C   0  0  0  0  0  0  0  0  0  0  0  0
   12.0432  -14.6835    0.0000 O   0  0  0  0  0  0  0  0  0  0  0  0
   10.7229  -12.4459    0.0000 C   0  0  0  0  0  0  0  0  0  0  0  0
    9.4310  -13.2082    0.0000 N   0  0  0  0  0  0  0  0  0  0  0  0
    8.1248  -12.4707    0.0000 C   0  0  0  0  0  0  0  0  0  0  0  0
    6.8332  -13.2330    0.0000 C   0  0  0  0  0  0  0  0  0  0  0  0
    8.1105  -10.9709    0.0000 O   0  0  0  0  0  0  0  0  0  0  0  0
    5.5270  -12.4955    0.0000 N   0  0  0  0  0  0  0  0  0  0  0  0
    6.8473  -14.7330    0.0000 C   0  0  0  0  0  0  0  0  0  0  0  0
    5.5556  -15.4953    0.0000 C   0  0  0  0  0  0  0  0  0  0  0  0
    5.5699  -16.9953    0.0000 S   0  0  0  0  0  0  0  0  0  0  0  0
    4.2781  -17.7576    0.0000 C   0  0  0  0  0  0  0  0  0  0  0  0
  2  1  2  0  0  0  0
  3  2  2  0  0  0  0
  4  5  2  0  0  0  0
  5  6  1  0  0  0  0
  6  7  2  0  0  0  0
  7  8  1  0  0  0  0
  8  9  2  0  0  0  0
  9  4  1  0  0  0  0
  6  2  1  0  0  0  0
  2 10  1  0  0  0  0
 10 11  1  0  0  0  0
 11 12  1  0  0  0  0
 12 13  1  0  0  0  0
 13 14  1  0  0  0  0
 14 10  1  0  0  0  0
 14 15  1  6  0  0  0
 15 16  1  0  0  0  0
 15 17  2  0  0  0  0
 16 18  1  0  0  0  0
 12 19  1  6  0  0  0
 19 20  1  0  0  0  0
 20 21  2  0  0  0  0
 20 22  1  0  0  0  0
 22 23  1  0  0  0  0
 23 24  1  0  0  0  0
 24 25  1  0  0  0  0
 24 26  2  0  0  0  0
 25 27  1  0  0  0  0
 25 28  1  6  0  0  0
 28 29  1  0  0  0  0
 29 30  1  0  0  0  0
 30 31  1  0  0  0  0
M  END
> <Value>
4.0

> <Relation>
<

> <SourceURI>
mol:CHEMBL3261747

$$$$

Generated by Molecular Materials Informatics

 29 30  0  0  0  0  0  0  0  0999 V2000
   19.4297   -6.0733    0.0000 O   0  0  0  0  0  0  0  0  0  0  0  0
   19.4372   -7.5733    0.0000 S   0  0  0  0  0  0  0  0  0  0  0  0
   20.7324   -6.8167    0.0000 O   0  0  0  0  0  0  0  0  0  0  0  0
   15.6947   -8.8714    0.0000 C   0  0  0  0  0  0  0  0  0  0  0  0
   17.1914   -8.8734    0.0000 C   0  0  0  0  0  0  0  0  0  0  0  0
   17.9383   -7.5803    0.0000 C   0  0  0  0  0  0  0  0  0  0  0  0
   17.1905   -6.2844    0.0000 C   0  0  0  0  0  0  0  0  0  0  0  0
   15.6881   -6.2895    0.0000 C   0  0  0  0  0  0  0  0  0  0  0  0
   14.9480   -7.5836    0.0000 C   0  0  0  0  0  0  0  0  0  0  0  0
   20.1880   -8.8800    0.0000 N   0  0  0  0  0  0  0  0  0  0  0  0
   19.5686  -10.2527    0.0000 C   0  0  0  0  0  0  0  0  0  0  0  0
   20.6865  -11.2633    0.0000 C   0  0  0  0  0  0  0  0  0  0  0  0
   21.9932  -10.5126    0.0000 C   0  0  0  0  0  0  0  0  0  0  0  0
   21.6826   -9.0379    0.0000 C   0  0  0  0  0  0  0  0  0  0  0  0
   22.6878   -7.9244    0.0000 C   0  0  0  0  0  0  0  0  0  0  0  0
   24.1546   -8.2381    0.0000 N   0  0  0  0  0  0  0  0  0  0  0  0
   22.2260   -6.4973    0.0000 O   0  0  0  0  0  0  0  0  0  0  0  0
   24.6164   -9.6653    0.0000 O   0  0  0  0  0  0  0  0  0  0  0  0
   20.7008  -12.7626    0.0000 N   0  0  0  0  0  0  0  0  0  0  0  0
   19.4090  -13.5249    0.0000 C   0  0  0  0  0  0  0  0  0  0  0  0
   19.4233  -15.0247    0.0000 O   0  0  0  0  0  0  0  0  0  0  0  0
   18.1028  -12.7874    0.0000 C   0  0  0  0  0  0  0  0  0  0  0  0
   16.8111  -13.5497    0.0000 N   0  0  0  0  0  0  0  0  0  0  0  0
   15.5049  -12.8121    0.0000 C   0  0  0  0  0  0  0  0  0  0  0  0
   14.2131  -13.5744    0.0000 C   0  0  0  0  0  0  0  0  0  0  0  0
   15.4906  -11.3121    0.0000 O   0  0  0  0  0  0  0  0  0  0  0  0
   12.9069  -12.8369    0.0000 N   0  0  0  0  0  0  0  0  0  0  0  0
   14.2274  -15.0743    0.0000 C   0  0  0  0  0  0  0  0  0  0  0  0
   13.4480   -7.5882    0.0000 C   0  0  0  0  0  0  0  0  0  0  0  0
  2  1  2  0  0  0  0
  3  2  2  0  0  0  0
  4  5  2  0  0  0  0
  5  6  1  0  0  0  0
  6  7  2  0  0  0  0
  7  8  1  0  0  0  0
  8  9  2  0  0  0  0
  9  4  1  0  0  0  0
  6  2  1  0  0  0  0
  2 10  1  0  0  0  0
 10 11  1  0  0  0  0
 11 12  1  0  0  0  0
 12 13  1  0  0  0  0
 13 14  1  0  0  0  0
 14 10  1  0  0  0  0
 14 15  1  6  0  0  0
 15 16  1  0  0  0  0
 15 17  2  0  0  0  0
 16 18  1  0  0  0  0
 12 19  1  6  0  0  0
 19 20  1  0  0  0  0
 20 21  2  0  0  0  0
 20 22  1  0  0  0  0
 22 23  1  0  0  0  0
 23 24  1  0  0  0  0
 24 25  1  0  0  0  0
 24 26  2  0  0  0  0
 25 27  1  0  0  0  0
 25 28  1  6  0  0  0
  9 29  1  0  0  0  0
M  END
> <Value>
4.0

> <Relation>
<

> <SourceURI>
mol:CHEMBL3261748

$$$$

Generated by Molecular Materials Informatics

 31 32  0  0  0  0  0  0  0  0999 V2000
   26.7885   -5.7491    0.0000 O   0  0  0  0  0  0  0  0  0  0  0  0
   26.7962   -7.2492    0.0000 S   0  0  0  0  0  0  0  0  0  0  0  0
   28.0914   -6.4926    0.0000 O   0  0  0  0  0  0  0  0  0  0  0  0
   23.0534   -8.5473    0.0000 C   0  0  0  0  0  0  0  0  0  0  0  0
   24.5503   -8.5493    0.0000 C   0  0  0  0  0  0  0  0  0  0  0  0
   25.2972   -7.2562    0.0000 C   0  0  0  0  0  0  0  0  0  0  0  0
   24.5494   -5.9601    0.0000 C   0  0  0  0  0  0  0  0  0  0  0  0
   23.0470   -5.9652    0.0000 C   0  0  0  0  0  0  0  0  0  0  0  0
   22.3067   -7.2595    0.0000 C   0  0  0  0  0  0  0  0  0  0  0  0
   27.5469   -8.5558    0.0000 N   0  0  0  0  0  0  0  0  0  0  0  0
   26.9274   -9.9286    0.0000 C   0  0  0  0  0  0  0  0  0  0  0  0
   28.0453  -10.9393    0.0000 C   0  0  0  0  0  0  0  0  0  0  0  0
   29.3520  -10.1883    0.0000 C   0  0  0  0  0  0  0  0  0  0  0  0
   29.0416   -8.7138    0.0000 C   0  0  0  0  0  0  0  0  0  0  0  0
   30.0466   -7.6003    0.0000 C   0  0  0  0  0  0  0  0  0  0  0  0
   31.5136   -7.9140    0.0000 N   0  0  0  0  0  0  0  0  0  0  0  0
   29.5850   -6.1732    0.0000 O   0  0  0  0  0  0  0  0  0  0  0  0
   31.9753   -9.3412    0.0000 O   0  0  0  0  0  0  0  0  0  0  0  0
   28.0596  -12.4384    0.0000 N   0  0  0  0  0  0  0  0  0  0  0  0
   26.7679  -13.2009    0.0000 C   0  0  0  0  0  0  0  0  0  0  0  0
   26.7822  -14.7007    0.0000 O   0  0  0  0  0  0  0  0  0  0  0  0
   25.4617  -12.4632    0.0000 C   0  0  0  0  0  0  0  0  0  0  0  0
   24.1698  -13.2255    0.0000 N   0  0  0  0  0  0  0  0  0  0  0  0
   22.8636  -12.4879    0.0000 C   0  0  0  0  0  0  0  0  0  0  0  0
   21.5719  -13.2503    0.0000 C   0  0  0  0  0  0  0  0  0  0  0  0
   22.8493  -10.9881    0.0000 O   0  0  0  0  0  0  0  0  0  0  0  0
   20.2657  -12.5127    0.0000 N   0  0  0  0  0  0  0  0  0  0  0  0
   21.5862  -14.7503    0.0000 C   0  0  0  0  0  0  0  0  0  0  0  0
   20.2944  -15.5126    0.0000 C   0  0  0  0  0  0  0  0  0  0  0  0
   22.8923  -15.4878    0.0000 C   0  0  0  0  0  0  0  0  0  0  0  0
   20.8069   -7.2639    0.0000 C   0  0  0  0  0  0  0  0  0  0  0  0
  2  1  2  0  0  0  0
  3  2  2  0  0  0  0
  4  5  2  0  0  0  0
  5  6  1  0  0  0  0
  6  7  2  0  0  0  0
  7  8  1  0  0  0  0
  8  9  2  0  0  0  0
  9  4  1  0  0  0  0
  6  2  1  0  0  0  0
  2 10  1  0  0  0  0
 10 11  1  0  0  0  0
 11 12  1  0  0  0  0
 12 13  1  0  0  0  0
 13 14  1  0  0  0  0
 14 10  1  0  0  0  0
 14 15  1  6  0  0  0
 15 16  1  0  0  0  0
 15 17  2  0  0  0  0
 16 18  1  0  0  0  0
 12 19  1  6  0  0  0
 19 20  1  0  0  0  0
 20 21  2  0  0  0  0
 20 22  1  0  0  0  0
 22 23  1  0  0  0  0
 23 24  1  0  0  0  0
 24 25  1  0  0  0  0
 24 26  2  0  0  0  0
 25 27  1  0  0  0  0
 25 28  1  6  0  0  0
 28 29  1  0  0  0  0
 28 30  1  0  0  0  0
  9 31  1  0  0  0  0
M  END
> <Value>
4.0166443856682115

> <Relation>
=

> <SourceURI>
mol:CHEMBL3261749

$$$$

Generated by Molecular Materials Informatics

 32 33  0  0  0  0  0  0  0  0999 V2000
   35.0489   -6.0954    0.0000 O   0  0  0  0  0  0  0  0  0  0  0  0
   35.0564   -7.5954    0.0000 S   0  0  0  0  0  0  0  0  0  0  0  0
   36.3518   -6.8388    0.0000 O   0  0  0  0  0  0  0  0  0  0  0  0
   31.3140   -8.8935    0.0000 C   0  0  0  0  0  0  0  0  0  0  0  0
   32.8107   -8.8955    0.0000 C   0  0  0  0  0  0  0  0  0  0  0  0
   33.5577   -7.6025    0.0000 C   0  0  0  0  0  0  0  0  0  0  0  0
   32.8099   -6.3064    0.0000 C   0  0  0  0  0  0  0  0  0  0  0  0
   31.3073   -6.3116    0.0000 C   0  0  0  0  0  0  0  0  0  0  0  0
   30.5673   -7.6056    0.0000 C   0  0  0  0  0  0  0  0  0  0  0  0
   35.8074   -8.9021    0.0000 N   0  0  0  0  0  0  0  0  0  0  0  0
   35.1879  -10.2747    0.0000 C   0  0  0  0  0  0  0  0  0  0  0  0
   36.3057  -11.2854    0.0000 C   0  0  0  0  0  0  0  0  0  0  0  0
   37.6125  -10.5346    0.0000 C   0  0  0  0  0  0  0  0  0  0  0  0
   37.3021   -9.0599    0.0000 C   0  0  0  0  0  0  0  0  0  0  0  0
   38.3070   -7.9465    0.0000 C   0  0  0  0  0  0  0  0  0  0  0  0
   39.7738   -8.2602    0.0000 N   0  0  0  0  0  0  0  0  0  0  0  0
   37.8454   -6.5194    0.0000 O   0  0  0  0  0  0  0  0  0  0  0  0
   40.2356   -9.6873    0.0000 O   0  0  0  0  0  0  0  0  0  0  0  0
   36.3200  -12.7846    0.0000 N   0  0  0  0  0  0  0  0  0  0  0  0
   35.0282  -13.5469    0.0000 C   0  0  0  0  0  0  0  0  0  0  0  0
   35.0425  -15.0468    0.0000 O   0  0  0  0  0  0  0  0  0  0  0  0
   33.7222  -12.8094    0.0000 C   0  0  0  0  0  0  0  0  0  0  0  0
   32.4303  -13.5717    0.0000 N   0  0  0  0  0  0  0  0  0  0  0  0
   31.1242  -12.8342    0.0000 C   0  0  0  0  0  0  0  0  0  0  0  0
   29.8323  -13.5965    0.0000 C   0  0  0  0  0  0  0  0  0  0  0  0
   31.1098  -11.3342    0.0000 O   0  0  0  0  0  0  0  0  0  0  0  0
   28.5263  -12.8590    0.0000 N   0  0  0  0  0  0  0  0  0  0  0  0
   29.8466  -15.0963    0.0000 C   0  0  0  0  0  0  0  0  0  0  0  0
   28.5549  -15.8588    0.0000 C   0  0  0  0  0  0  0  0  0  0  0  0
   28.5691  -17.3586    0.0000 C   0  0  0  0  0  0  0  0  0  0  0  0
   27.2488  -15.1211    0.0000 C   0  0  0  0  0  0  0  0  0  0  0  0
   29.0672   -7.6102    0.0000 C   0  0  0  0  0  0  0  0  0  0  0  0
  2  1  2  0  0  0  0
  3  2  2  0  0  0  0
  4  5  2  0  0  0  0
  5  6  1  0  0  0  0
  6  7  2  0  0  0  0
  7  8  1  0  0  0  0
  8  9  2  0  0  0  0
  9  4  1  0  0  0  0
  6  2  1  0  0  0  0
  2 10  1  0  0  0  0
 10 11  1  0  0  0  0
 11 12  1  0  0  0  0
 12 13  1  0  0  0  0
 13 14  1  0  0  0  0
 14 10  1  0  0  0  0
 14 15  1  6  0  0  0
 15 16  1  0  0  0  0
 15 17  2  0  0  0  0
 16 18  1  0  0  0  0
 12 19  1  6  0  0  0
 19 20  1  0  0  0  0
 20 21  2  0  0  0  0
 20 22  1  0  0  0  0
 22 23  1  0  0  0  0
 23 24  1  0  0  0  0
 24 25  1  0  0  0  0
 24 26  2  0  0  0  0
 25 27  1  0  0  0  0
 25 28  1  6  0  0  0
 28 29  1  0  0  0  0
 29 30  1  0  0  0  0
 29 31  1  0  0  0  0
  9 32  1  0  0  0  0
M  END
> <Value>
4.120273503360423

> <Relation>
=

> <SourceURI>
mol:CHEMBL3261750

$$$$

Generated by Molecular Materials Informatics

 32 33  0  0  0  0  0  0  0  0999 V2000
    5.2320  -13.8102    0.0000 O   0  0  0  0  0  0  0  0  0  0  0  0
    5.2395  -15.3102    0.0000 S   0  0  0  0  0  0  0  0  0  0  0  0
    6.5348  -14.5536    0.0000 O   0  0  0  0  0  0  0  0  0  0  0  0
    1.4970  -16.6081    0.0000 C   0  0  0  0  0  0  0  0  0  0  0  0
    2.9937  -16.6103    0.0000 C   0  0  0  0  0  0  0  0  0  0  0  0
    3.7408  -15.3172    0.0000 C   0  0  0  0  0  0  0  0  0  0  0  0
    2.9930  -14.0211    0.0000 C   0  0  0  0  0  0  0  0  0  0  0  0
    1.4904  -14.0262    0.0000 C   0  0  0  0  0  0  0  0  0  0  0  0
    0.7503  -15.3205    0.0000 C   0  0  0  0  0  0  0  0  0  0  0  0
    5.9904  -16.6167    0.0000 N   0  0  0  0  0  0  0  0  0  0  0  0
    5.3709  -17.9895    0.0000 C   0  0  0  0  0  0  0  0  0  0  0  0
    6.4887  -19.0002    0.0000 C   0  0  0  0  0  0  0  0  0  0  0  0
    7.7955  -18.2492    0.0000 C   0  0  0  0  0  0  0  0  0  0  0  0
    7.4851  -16.7748    0.0000 C   0  0  0  0  0  0  0  0  0  0  0  0
    8.4900  -15.6613    0.0000 C   0  0  0  0  0  0  0  0  0  0  0  0
    9.9568  -15.9750    0.0000 N   0  0  0  0  0  0  0  0  0  0  0  0
    8.0284  -14.2342    0.0000 O   0  0  0  0  0  0  0  0  0  0  0  0
   10.4186  -17.4021    0.0000 O   0  0  0  0  0  0  0  0  0  0  0  0
    6.5031  -20.4993    0.0000 N   0  0  0  0  0  0  0  0  0  0  0  0
    5.2114  -21.2616    0.0000 C   0  0  0  0  0  0  0  0  0  0  0  0
    5.2255  -22.7616    0.0000 O   0  0  0  0  0  0  0  0  0  0  0  0
    3.9052  -20.5240    0.0000 C   0  0  0  0  0  0  0  0  0  0  0  0
    2.6134  -21.2863    0.0000 N   0  0  0  0  0  0  0  0  0  0  0  0
    1.3072  -20.5488    0.0000 C   0  0  0  0  0  0  0  0  0  0  0  0
    0.0153  -21.3111    0.0000 C   0  0  0  0  0  0  0  0  0  0  0  0
    1.2929  -19.0490    0.0000 O   0  0  0  0  0  0  0  0  0  0  0  0
   -1.2906  -20.5736    0.0000 N   0  0  0  0  0  0  0  0  0  0  0  0
    0.0297  -22.8111    0.0000 C   0  0  0  0  0  0  0  0  0  0  0  0
   -1.2620  -23.5734    0.0000 C   0  0  0  0  0  0  0  0  0  0  0  0
    1.3358  -23.5486    0.0000 C   0  0  0  0  0  0  0  0  0  0  0  0
   -1.2477  -25.0734    0.0000 C   0  0  0  0  0  0  0  0  0  0  0  0
   -0.7497  -15.3249    0.0000 C   0  0  0  0  0  0  0  0  0  0  0  0
  2  1  2  0  0  0  0
  3  2  2  0  0  0  0
  4  5  2  0  0  0  0
  5  6  1  0  0  0  0
  6  7  2  0  0  0  0
  7  8  1  0  0  0  0
  8  9  2  0  0  0  0
  9  4  1  0  0  0  0
  6  2  1  0  0  0  0
  2 10  1  0  0  0  0
 10 11  1  0  0  0  0
 11 12  1  0  0  0  0
 12 13  1  0  0  0  0
 13 14  1  0  0  0  0
 14 10  1  0  0  0  0
 14 15  1  6  0  0  0
 15 16  1  0  0  0  0
 15 17  2  0  0  0  0
 16 18  1  0  0  0  0
 12 19  1  6  0  0  0
 19 20  1  0  0  0  0
 20 21  2  0  0  0  0
 20 22  1  0  0  0  0
 22 23  1  0  0  0  0
 23 24  1  0  0  0  0
 24 25  1  0  0  0  0
 24 26  2  0  0  0  0
 25 27  1  6  0  0  0
 25 28  1  0  0  0  0
 28 29  1  0  0  0  0
 28 30  1  1  0  0  0
 29 31  1  0  0  0  0
  9 32  1  0  0  0  0
M  END
> <Value>
4.033248335948622

> <Relation>
=

> <SourceURI>
mol:CHEMBL3261751

$$$$

Generated by Molecular Materials Informatics

 35 37  0  0  0  0  0  0  0  0999 V2000
   13.6095  -13.8862    0.0000 O   0  0  0  0  0  0  0  0  0  0  0  0
   13.6173  -15.3862    0.0000 S   0  0  0  0  0  0  0  0  0  0  0  0
   14.9124  -14.6296    0.0000 O   0  0  0  0  0  0  0  0  0  0  0  0
    9.8748  -16.6843    0.0000 C   0  0  0  0  0  0  0  0  0  0  0  0
   11.3715  -16.6863    0.0000 C   0  0  0  0  0  0  0  0  0  0  0  0
   12.1183  -15.3932    0.0000 C   0  0  0  0  0  0  0  0  0  0  0  0
   11.3705  -14.0971    0.0000 C   0  0  0  0  0  0  0  0  0  0  0  0
    9.8682  -14.1023    0.0000 C   0  0  0  0  0  0  0  0  0  0  0  0
    9.1281  -15.3965    0.0000 C   0  0  0  0  0  0  0  0  0  0  0  0
   14.3680  -16.6928    0.0000 N   0  0  0  0  0  0  0  0  0  0  0  0
   13.7487  -18.0656    0.0000 C   0  0  0  0  0  0  0  0  0  0  0  0
   14.8665  -19.0762    0.0000 C   0  0  0  0  0  0  0  0  0  0  0  0
   16.1733  -18.3253    0.0000 C   0  0  0  0  0  0  0  0  0  0  0  0
   15.8627  -16.8508    0.0000 C   0  0  0  0  0  0  0  0  0  0  0  0
   16.8678  -15.7374    0.0000 C   0  0  0  0  0  0  0  0  0  0  0  0
   18.3346  -16.0511    0.0000 N   0  0  0  0  0  0  0  0  0  0  0  0
   16.4060  -14.3102    0.0000 O   0  0  0  0  0  0  0  0  0  0  0  0
   18.7962  -17.4782    0.0000 O   0  0  0  0  0  0  0  0  0  0  0  0
   14.8808  -20.5753    0.0000 N   0  0  0  0  0  0  0  0  0  0  0  0
   13.5890  -21.3376    0.0000 C   0  0  0  0  0  0  0  0  0  0  0  0
   13.6033  -22.8376    0.0000 O   0  0  0  0  0  0  0  0  0  0  0  0
   12.2828  -20.6001    0.0000 C   0  0  0  0  0  0  0  0  0  0  0  0
   10.9910  -21.3624    0.0000 N   0  0  0  0  0  0  0  0  0  0  0  0
    9.6850  -20.6249    0.0000 C   0  0  0  0  0  0  0  0  0  0  0  0
    8.3931  -21.3872    0.0000 C   0  0  0  0  0  0  0  0  0  0  0  0
    9.6706  -19.1250    0.0000 O   0  0  0  0  0  0  0  0  0  0  0  0
    7.0869  -20.6496    0.0000 N   0  0  0  0  0  0  0  0  0  0  0  0
    8.4074  -22.8872    0.0000 C   0  0  0  0  0  0  0  0  0  0  0  0
    7.1156  -23.6495    0.0000 C   0  0  0  0  0  0  0  0  0  0  0  0
    5.8107  -22.9175    0.0000 C   0  0  0  0  0  0  0  0  0  0  0  0
    4.5330  -23.6787    0.0000 C   0  0  0  0  0  0  0  0  0  0  0  0
    4.5346  -25.1801    0.0000 C   0  0  0  0  0  0  0  0  0  0  0  0
    5.8485  -25.9173    0.0000 C   0  0  0  0  0  0  0  0  0  0  0  0
    7.1341  -25.1519    0.0000 C   0  0  0  0  0  0  0  0  0  0  0  0
    7.6281  -15.4009    0.0000 C   0  0  0  0  0  0  0  0  0  0  0  0
  2  1  2  0  0  0  0
  3  2  2  0  0  0  0
  4  5  2  0  0  0  0
  5  6  1  0  0  0  0
  6  7  2  0  0  0  0
  7  8  1  0  0  0  0
  8  9  2  0  0  0  0
  9  4  1  0  0  0  0
  6  2  1  0  0  0  0
  2 10  1  0  0  0  0
 10 11  1  0  0  0  0
 11 12  1  0  0  0  0
 12 13  1  0  0  0  0
 13 14  1  0  0  0  0
 14 10  1  0  0  0  0
 14 15  1  6  0  0  0
 15 16  1  0  0  0  0
 15 17  2  0  0  0  0
 16 18  1  0  0  0  0
 12 19  1  6  0  0  0
 19 20  1  0  0  0  0
 20 21  2  0  0  0  0
 20 22  1  0  0  0  0
 22 23  1  0  0  0  0
 23 24  1  0  0  0  0
 24 25  1  0  0  0  0
 24 26  2  0  0  0  0
 25 27  1  0  0  0  0
 25 28  1  6  0  0  0
 28 29  1  0  0  0  0
 29 30  2  0  0  0  0
 30 31  1  0  0  0  0
 31 32  2  0  0  0  0
 32 33  1  0  0  0  0
 33 34  2  0  0  0  0
 34 29  1  0  0  0  0
  9 35  1  0  0  0  0
M  END
> <Value>
4.05576415620652

> <Relation>
=

> <SourceURI>
mol:CHEMBL3261752

$$$$

Generated by Molecular Materials Informatics

 32 33  0  0  0  0  0  0  0  0999 V2000
   20.7581  -14.2053    0.0000 O   0  0  0  0  0  0  0  0  0  0  0  0
   20.7657  -15.7053    0.0000 S   0  0  0  0  0  0  0  0  0  0  0  0
   22.0608  -14.9487    0.0000 O   0  0  0  0  0  0  0  0  0  0  0  0
   17.0232  -17.0034    0.0000 C   0  0  0  0  0  0  0  0  0  0  0  0
   18.5199  -17.0054    0.0000 C   0  0  0  0  0  0  0  0  0  0  0  0
   19.2668  -15.7122    0.0000 C   0  0  0  0  0  0  0  0  0  0  0  0
   18.5190  -14.4162    0.0000 C   0  0  0  0  0  0  0  0  0  0  0  0
   17.0166  -14.4213    0.0000 C   0  0  0  0  0  0  0  0  0  0  0  0
   16.2765  -15.7156    0.0000 C   0  0  0  0  0  0  0  0  0  0  0  0
   21.5164  -17.0118    0.0000 N   0  0  0  0  0  0  0  0  0  0  0  0
   20.8971  -18.3846    0.0000 C   0  0  0  0  0  0  0  0  0  0  0  0
   22.0149  -19.3953    0.0000 C   0  0  0  0  0  0  0  0  0  0  0  0
   23.3217  -18.6443    0.0000 C   0  0  0  0  0  0  0  0  0  0  0  0
   23.0111  -17.1699    0.0000 C   0  0  0  0  0  0  0  0  0  0  0  0
   24.0162  -16.0564    0.0000 C   0  0  0  0  0  0  0  0  0  0  0  0
   25.4830  -16.3701    0.0000 N   0  0  0  0  0  0  0  0  0  0  0  0
   23.5544  -14.6293    0.0000 O   0  0  0  0  0  0  0  0  0  0  0  0
   25.9448  -17.7972    0.0000 O   0  0  0  0  0  0  0  0  0  0  0  0
   22.0293  -20.8944    0.0000 N   0  0  0  0  0  0  0  0  0  0  0  0
   20.7374  -21.6567    0.0000 C   0  0  0  0  0  0  0  0  0  0  0  0
   20.7517  -23.1567    0.0000 O   0  0  0  0  0  0  0  0  0  0  0  0
   19.4312  -20.9191    0.0000 C   0  0  0  0  0  0  0  0  0  0  0  0
   18.1396  -21.6814    0.0000 N   0  0  0  0  0  0  0  0  0  0  0  0
   16.8334  -20.9439    0.0000 C   0  0  0  0  0  0  0  0  0  0  0  0
   15.5415  -21.7062    0.0000 C   0  0  0  0  0  0  0  0  0  0  0  0
   16.8191  -19.4441    0.0000 O   0  0  0  0  0  0  0  0  0  0  0  0
   14.2354  -20.9687    0.0000 N   0  0  0  0  0  0  0  0  0  0  0  0
   15.5558  -23.2062    0.0000 C   0  0  0  0  0  0  0  0  0  0  0  0
   14.2640  -23.9685    0.0000 C   0  0  0  0  0  0  0  0  0  0  0  0
   14.2783  -25.4685    0.0000 S   0  0  0  0  0  0  0  0  0  0  0  0
   12.9865  -26.2308    0.0000 C   0  0  0  0  0  0  0  0  0  0  0  0
   14.7765  -15.7200    0.0000 C   0  0  0  0  0  0  0  0  0  0  0  0
  2  1  2  0  0  0  0
  3  2  2  0  0  0  0
  4  5  2  0  0  0  0
  5  6  1  0  0  0  0
  6  7  2  0  0  0  0
  7  8  1  0  0  0  0
  8  9  2  0  0  0  0
  9  4  1  0  0  0  0
  6  2  1  0  0  0  0
  2 10  1  0  0  0  0
 10 11  1  0  0  0  0
 11 12  1  0  0  0  0
 12 13  1  0  0  0  0
 13 14  1  0  0  0  0
 14 10  1  0  0  0  0
 14 15  1  6  0  0  0
 15 16  1  0  0  0  0
 15 17  2  0  0  0  0
 16 18  1  0  0  0  0
 12 19  1  6  0  0  0
 19 20  1  0  0  0  0
 20 21  2  0  0  0  0
 20 22  1  0  0  0  0
 22 23  1  0  0  0  0
 23 24  1  0  0  0  0
 24 25  1  0  0  0  0
 24 26  2  0  0  0  0
 25 27  1  0  0  0  0
 25 28  1  6  0  0  0
 28 29  1  0  0  0  0
 29 30  1  0  0  0  0
 30 31  1  0  0  0  0
  9 32  1  0  0  0  0
M  END
> <Value>
4.0

> <Relation>
<

> <SourceURI>
mol:CHEMBL3261753

$$$$

Generated by Molecular Materials Informatics

 30 31  0  0  0  0  0  0  0  0999 V2000
   29.2225  -15.1996    0.0000 O   0  0  0  0  0  0  0  0  0  0  0  0
   29.2300  -16.6996    0.0000 S   0  0  0  0  0  0  0  0  0  0  0  0
   30.5252  -15.9432    0.0000 O   0  0  0  0  0  0  0  0  0  0  0  0
   25.4876  -17.9977    0.0000 C   0  0  0  0  0  0  0  0  0  0  0  0
   26.9843  -17.9997    0.0000 C   0  0  0  0  0  0  0  0  0  0  0  0
   27.7311  -16.7067    0.0000 C   0  0  0  0  0  0  0  0  0  0  0  0
   26.9833  -15.4107    0.0000 C   0  0  0  0  0  0  0  0  0  0  0  0
   25.4809  -15.4158    0.0000 C   0  0  0  0  0  0  0  0  0  0  0  0
   24.7409  -16.7099    0.0000 C   0  0  0  0  0  0  0  0  0  0  0  0
   29.9808  -18.0063    0.0000 N   0  0  0  0  0  0  0  0  0  0  0  0
   29.3615  -19.3789    0.0000 C   0  0  0  0  0  0  0  0  0  0  0  0
   30.4793  -20.3896    0.0000 C   0  0  0  0  0  0  0  0  0  0  0  0
   31.7860  -19.6388    0.0000 C   0  0  0  0  0  0  0  0  0  0  0  0
   31.4755  -18.1642    0.0000 C   0  0  0  0  0  0  0  0  0  0  0  0
   32.4806  -17.0507    0.0000 C   0  0  0  0  0  0  0  0  0  0  0  0
   33.9474  -17.3644    0.0000 N   0  0  0  0  0  0  0  0  0  0  0  0
   32.0188  -15.6236    0.0000 O   0  0  0  0  0  0  0  0  0  0  0  0
   34.4092  -18.7915    0.0000 O   0  0  0  0  0  0  0  0  0  0  0  0
   30.4936  -21.8888    0.0000 N   0  0  0  0  0  0  0  0  0  0  0  0
   29.2018  -22.6511    0.0000 C   0  0  0  0  0  0  0  0  0  0  0  0
   29.2161  -24.1510    0.0000 O   0  0  0  0  0  0  0  0  0  0  0  0
   27.8956  -21.9136    0.0000 C   0  0  0  0  0  0  0  0  0  0  0  0
   26.6039  -22.6759    0.0000 N   0  0  0  0  0  0  0  0  0  0  0  0
   25.2978  -21.9384    0.0000 C   0  0  0  0  0  0  0  0  0  0  0  0
   24.0059  -22.7007    0.0000 C   0  0  0  0  0  0  0  0  0  0  0  0
   25.2834  -20.4384    0.0000 O   0  0  0  0  0  0  0  0  0  0  0  0
   22.6997  -21.9632    0.0000 N   0  0  0  0  0  0  0  0  0  0  0  0
   24.0202  -24.2005    0.0000 C   0  0  0  0  0  0  0  0  0  0  0  0
   23.2409  -16.7144    0.0000 O   0  0  0  0  0  0  0  0  0  0  0  0
   22.4870  -15.4176    0.0000 C   0  0  0  0  0  0  0  0  0  0  0  0
  2  1  2  0  0  0  0
  3  2  2  0  0  0  0
  4  5  2  0  0  0  0
  5  6  1  0  0  0  0
  6  7  2  0  0  0  0
  7  8  1  0  0  0  0
  8  9  2  0  0  0  0
  9  4  1  0  0  0  0
  6  2  1  0  0  0  0
  2 10  1  0  0  0  0
 10 11  1  0  0  0  0
 11 12  1  0  0  0  0
 12 13  1  0  0  0  0
 13 14  1  0  0  0  0
 14 10  1  0  0  0  0
 14 15  1  6  0  0  0
 15 16  1  0  0  0  0
 15 17  2  0  0  0  0
 16 18  1  0  0  0  0
 12 19  1  6  0  0  0
 19 20  1  0  0  0  0
 20 21  2  0  0  0  0
 20 22  1  0  0  0  0
 22 23  1  0  0  0  0
 23 24  1  0  0  0  0
 24 25  1  0  0  0  0
 24 26  2  0  0  0  0
 25 27  1  0  0  0  0
 25 28  1  6  0  0  0
  9 29  1  0  0  0  0
 29 30  1  0  0  0  0
M  END
> <Value>
4.0

> <Relation>
<

> <SourceURI>
mol:CHEMBL3261754

$$$$

Generated by Molecular Materials Informatics

 32 33  0  0  0  0  0  0  0  0999 V2000
    5.0782  -21.8589    0.0000 O   0  0  0  0  0  0  0  0  0  0  0  0
    5.0857  -23.3589    0.0000 S   0  0  0  0  0  0  0  0  0  0  0  0
    6.3809  -22.6023    0.0000 O   0  0  0  0  0  0  0  0  0  0  0  0
    1.3433  -24.6570    0.0000 C   0  0  0  0  0  0  0  0  0  0  0  0
    2.8400  -24.6590    0.0000 C   0  0  0  0  0  0  0  0  0  0  0  0
    3.5868  -23.3659    0.0000 C   0  0  0  0  0  0  0  0  0  0  0  0
    2.8390  -22.0698    0.0000 C   0  0  0  0  0  0  0  0  0  0  0  0
    1.3366  -22.0749    0.0000 C   0  0  0  0  0  0  0  0  0  0  0  0
    0.5966  -23.3692    0.0000 C   0  0  0  0  0  0  0  0  0  0  0  0
    5.8365  -24.6654    0.0000 N   0  0  0  0  0  0  0  0  0  0  0  0
    5.2172  -26.0382    0.0000 C   0  0  0  0  0  0  0  0  0  0  0  0
    6.3350  -27.0489    0.0000 C   0  0  0  0  0  0  0  0  0  0  0  0
    7.6417  -26.2980    0.0000 C   0  0  0  0  0  0  0  0  0  0  0  0
    7.3312  -24.8235    0.0000 C   0  0  0  0  0  0  0  0  0  0  0  0
    8.3363  -23.7100    0.0000 C   0  0  0  0  0  0  0  0  0  0  0  0
    9.8031  -24.0237    0.0000 N   0  0  0  0  0  0  0  0  0  0  0  0
    7.8745  -22.2829    0.0000 O   0  0  0  0  0  0  0  0  0  0  0  0
   10.2649  -25.4509    0.0000 O   0  0  0  0  0  0  0  0  0  0  0  0
    6.3493  -28.5480    0.0000 N   0  0  0  0  0  0  0  0  0  0  0  0
    5.0575  -29.3105    0.0000 C   0  0  0  0  0  0  0  0  0  0  0  0
    5.0718  -30.8103    0.0000 O   0  0  0  0  0  0  0  0  0  0  0  0
    3.7513  -28.5728    0.0000 C   0  0  0  0  0  0  0  0  0  0  0  0
    2.4596  -29.3352    0.0000 N   0  0  0  0  0  0  0  0  0  0  0  0
    1.1535  -28.5975    0.0000 C   0  0  0  0  0  0  0  0  0  0  0  0
   -0.1384  -29.3600    0.0000 C   0  0  0  0  0  0  0  0  0  0  0  0
    1.1391  -27.0977    0.0000 O   0  0  0  0  0  0  0  0  0  0  0  0
   -1.4446  -28.6223    0.0000 N   0  0  0  0  0  0  0  0  0  0  0  0
   -0.1241  -30.8598    0.0000 C   0  0  0  0  0  0  0  0  0  0  0  0
   -0.9034  -23.3736    0.0000 O   0  0  0  0  0  0  0  0  0  0  0  0
   -1.6573  -22.0770    0.0000 C   0  0  0  0  0  0  0  0  0  0  0  0
    1.1821  -31.5974    0.0000 C   0  0  0  0  0  0  0  0  0  0  0  0
   -1.4159  -31.6221    0.0000 C   0  0  0  0  0  0  0  0  0  0  0  0
  2  1  2  0  0  0  0
  3  2  2  0  0  0  0
  4  5  2  0  0  0  0
  5  6  1  0  0  0  0
  6  7  2  0  0  0  0
  7  8  1  0  0  0  0
  8  9  2  0  0  0  0
  9  4  1  0  0  0  0
  6  2  1  0  0  0  0
  2 10  1  0  0  0  0
 10 11  1  0  0  0  0
 11 12  1  0  0  0  0
 12 13  1  0  0  0  0
 13 14  1  0  0  0  0
 14 10  1  0  0  0  0
 14 15  1  6  0  0  0
 15 16  1  0  0  0  0
 15 17  2  0  0  0  0
 16 18  1  0  0  0  0
 12 19  1  6  0  0  0
 19 20  1  0  0  0  0
 20 21  2  0  0  0  0
 20 22  1  0  0  0  0
 22 23  1  0  0  0  0
 23 24  1  0  0  0  0
 24 25  1  0  0  0  0
 24 26  2  0  0  0  0
 25 27  1  0  0  0  0
 25 28  1  6  0  0  0
  9 29  1  0  0  0  0
 29 30  1  0  0  0  0
 28 31  1  0  0  0  0
 28 32  1  0  0  0  0
M  END
> <Value>
4.042105512787102

> <Relation>
=

> <SourceURI>
mol:CHEMBL3261755

$$$$

Generated by Molecular Materials Informatics

 33 34  0  0  0  0  0  0  0  0999 V2000
   12.2129  -22.0183    0.0000 O   0  0  0  0  0  0  0  0  0  0  0  0
   12.2206  -23.5183    0.0000 S   0  0  0  0  0  0  0  0  0  0  0  0
   13.5158  -22.7617    0.0000 O   0  0  0  0  0  0  0  0  0  0  0  0
    8.4782  -24.8164    0.0000 C   0  0  0  0  0  0  0  0  0  0  0  0
    9.9748  -24.8184    0.0000 C   0  0  0  0  0  0  0  0  0  0  0  0
   10.7217  -23.5253    0.0000 C   0  0  0  0  0  0  0  0  0  0  0  0
    9.9739  -22.2292    0.0000 C   0  0  0  0  0  0  0  0  0  0  0  0
    8.4715  -22.2343    0.0000 C   0  0  0  0  0  0  0  0  0  0  0  0
    7.7315  -23.5286    0.0000 C   0  0  0  0  0  0  0  0  0  0  0  0
   12.9714  -24.8248    0.0000 N   0  0  0  0  0  0  0  0  0  0  0  0
   12.3521  -26.1976    0.0000 C   0  0  0  0  0  0  0  0  0  0  0  0
   13.4699  -27.2083    0.0000 C   0  0  0  0  0  0  0  0  0  0  0  0
   14.7766  -26.4574    0.0000 C   0  0  0  0  0  0  0  0  0  0  0  0
   14.4660  -24.9829    0.0000 C   0  0  0  0  0  0  0  0  0  0  0  0
   15.4712  -23.8694    0.0000 C   0  0  0  0  0  0  0  0  0  0  0  0
   16.9380  -24.1831    0.0000 N   0  0  0  0  0  0  0  0  0  0  0  0
   15.0094  -22.4423    0.0000 O   0  0  0  0  0  0  0  0  0  0  0  0
   17.3996  -25.6103    0.0000 O   0  0  0  0  0  0  0  0  0  0  0  0
   13.4842  -28.7074    0.0000 N   0  0  0  0  0  0  0  0  0  0  0  0
   12.1924  -29.4697    0.0000 C   0  0  0  0  0  0  0  0  0  0  0  0
   12.2067  -30.9697    0.0000 O   0  0  0  0  0  0  0  0  0  0  0  0
   10.8862  -28.7321    0.0000 C   0  0  0  0  0  0  0  0  0  0  0  0
    9.5943  -29.4944    0.0000 N   0  0  0  0  0  0  0  0  0  0  0  0
    8.2884  -28.7569    0.0000 C   0  0  0  0  0  0  0  0  0  0  0  0
    6.9965  -29.5192    0.0000 C   0  0  0  0  0  0  0  0  0  0  0  0
    8.2740  -27.2571    0.0000 O   0  0  0  0  0  0  0  0  0  0  0  0
    5.6903  -28.7817    0.0000 N   0  0  0  0  0  0  0  0  0  0  0  0
    7.0108  -31.0192    0.0000 C   0  0  0  0  0  0  0  0  0  0  0  0
    6.2315  -23.5330    0.0000 O   0  0  0  0  0  0  0  0  0  0  0  0
    5.4776  -22.2362    0.0000 C   0  0  0  0  0  0  0  0  0  0  0  0
    5.7190  -31.7815    0.0000 C   0  0  0  0  0  0  0  0  0  0  0  0
    5.7333  -33.2815    0.0000 C   0  0  0  0  0  0  0  0  0  0  0  0
    4.4128  -31.0440    0.0000 C   0  0  0  0  0  0  0  0  0  0  0  0
  2  1  2  0  0  0  0
  3  2  2  0  0  0  0
  4  5  2  0  0  0  0
  5  6  1  0  0  0  0
  6  7  2  0  0  0  0
  7  8  1  0  0  0  0
  8  9  2  0  0  0  0
  9  4  1  0  0  0  0
  6  2  1  0  0  0  0
  2 10  1  0  0  0  0
 10 11  1  0  0  0  0
 11 12  1  0  0  0  0
 12 13  1  0  0  0  0
 13 14  1  0  0  0  0
 14 10  1  0  0  0  0
 14 15  1  6  0  0  0
 15 16  1  0  0  0  0
 15 17  2  0  0  0  0
 16 18  1  0  0  0  0
 12 19  1  6  0  0  0
 19 20  1  0  0  0  0
 20 21  2  0  0  0  0
 20 22  1  0  0  0  0
 22 23  1  0  0  0  0
 23 24  1  0  0  0  0
 24 25  1  0  0  0  0
 24 26  2  0  0  0  0
 25 27  1  0  0  0  0
 25 28  1  6  0  0  0
  9 29  1  0  0  0  0
 29 30  1  0  0  0  0
 28 31  1  0  0  0  0
 31 32  1  0  0  0  0
 31 33  1  0  0  0  0
M  END
> <Value>
4.077949597832826

> <Relation>
=

> <SourceURI>
mol:CHEMBL3261756

$$$$

Generated by Molecular Materials Informatics

 33 34  0  0  0  0  0  0  0  0999 V2000
   19.3749  -22.1627    0.0000 O   0  0  0  0  0  0  0  0  0  0  0  0
   19.3824  -23.6627    0.0000 S   0  0  0  0  0  0  0  0  0  0  0  0
   20.6778  -22.9061    0.0000 O   0  0  0  0  0  0  0  0  0  0  0  0
   15.6399  -24.9608    0.0000 C   0  0  0  0  0  0  0  0  0  0  0  0
   17.1367  -24.9628    0.0000 C   0  0  0  0  0  0  0  0  0  0  0  0
   17.8835  -23.6698    0.0000 C   0  0  0  0  0  0  0  0  0  0  0  0
   17.1359  -22.3738    0.0000 C   0  0  0  0  0  0  0  0  0  0  0  0
   15.6333  -22.3789    0.0000 C   0  0  0  0  0  0  0  0  0  0  0  0
   14.8932  -23.6730    0.0000 C   0  0  0  0  0  0  0  0  0  0  0  0
   20.1334  -24.9694    0.0000 N   0  0  0  0  0  0  0  0  0  0  0  0
   19.5139  -26.3420    0.0000 C   0  0  0  0  0  0  0  0  0  0  0  0
   20.6317  -27.3527    0.0000 C   0  0  0  0  0  0  0  0  0  0  0  0
   21.9384  -26.6019    0.0000 C   0  0  0  0  0  0  0  0  0  0  0  0
   21.6279  -25.1273    0.0000 C   0  0  0  0  0  0  0  0  0  0  0  0
   22.6330  -24.0138    0.0000 C   0  0  0  0  0  0  0  0  0  0  0  0
   24.0998  -24.3275    0.0000 N   0  0  0  0  0  0  0  0  0  0  0  0
   22.1712  -22.5867    0.0000 O   0  0  0  0  0  0  0  0  0  0  0  0
   24.5616  -25.7546    0.0000 O   0  0  0  0  0  0  0  0  0  0  0  0
   20.6460  -28.8519    0.0000 N   0  0  0  0  0  0  0  0  0  0  0  0
   19.3542  -29.6142    0.0000 C   0  0  0  0  0  0  0  0  0  0  0  0
   19.3685  -31.1141    0.0000 O   0  0  0  0  0  0  0  0  0  0  0  0
   18.0482  -28.8767    0.0000 C   0  0  0  0  0  0  0  0  0  0  0  0
   16.7563  -29.6390    0.0000 N   0  0  0  0  0  0  0  0  0  0  0  0
   15.4502  -28.9015    0.0000 C   0  0  0  0  0  0  0  0  0  0  0  0
   14.1583  -29.6638    0.0000 C   0  0  0  0  0  0  0  0  0  0  0  0
   15.4358  -27.4015    0.0000 O   0  0  0  0  0  0  0  0  0  0  0  0
   12.8523  -28.9263    0.0000 N   0  0  0  0  0  0  0  0  0  0  0  0
   14.1726  -31.1636    0.0000 C   0  0  0  0  0  0  0  0  0  0  0  0
   12.8808  -31.9261    0.0000 C   0  0  0  0  0  0  0  0  0  0  0  0
   15.4788  -31.9013    0.0000 C   0  0  0  0  0  0  0  0  0  0  0  0
   12.8951  -33.4259    0.0000 C   0  0  0  0  0  0  0  0  0  0  0  0
   13.3932  -23.6775    0.0000 O   0  0  0  0  0  0  0  0  0  0  0  0
   12.6394  -22.3807    0.0000 C   0  0  0  0  0  0  0  0  0  0  0  0
  2  1  2  0  0  0  0
  3  2  2  0  0  0  0
  4  5  2  0  0  0  0
  5  6  1  0  0  0  0
  6  7  2  0  0  0  0
  7  8  1  0  0  0  0
  8  9  2  0  0  0  0
  9  4  1  0  0  0  0
  6  2  1  0  0  0  0
  2 10  1  0  0  0  0
 10 11  1  0  0  0  0
 11 12  1  0  0  0  0
 12 13  1  0  0  0  0
 13 14  1  0  0  0  0
 14 10  1  0  0  0  0
 14 15  1  6  0  0  0
 15 16  1  0  0  0  0
 15 17  2  0  0  0  0
 16 18  1  0  0  0  0
 12 19  1  6  0  0  0
 19 20  1  0  0  0  0
 20 21  2  0  0  0  0
 20 22  1  0  0  0  0
 22 23  1  0  0  0  0
 23 24  1  0  0  0  0
 24 25  1  0  0  0  0
 24 26  2  0  0  0  0
 25 27  1  6  0  0  0
 25 28  1  0  0  0  0
 28 29  1  0  0  0  0
 28 30  1  1  0  0  0
 29 31  1  0  0  0  0
  9 32  1  0  0  0  0
 32 33  1  0  0  0  0
M  END
> <Value>
4.04599883231843

> <Relation>
=

> <SourceURI>
mol:CHEMBL3261757

$$$$

Generated by Molecular Materials Informatics

 36 38  0  0  0  0  0  0  0  0999 V2000
   27.6216  -21.7692    0.0000 O   0  0  0  0  0  0  0  0  0  0  0  0
   27.6291  -23.2692    0.0000 S   0  0  0  0  0  0  0  0  0  0  0  0
   28.9245  -22.5126    0.0000 O   0  0  0  0  0  0  0  0  0  0  0  0
   23.8866  -24.5673    0.0000 C   0  0  0  0  0  0  0  0  0  0  0  0
   25.3833  -24.5693    0.0000 C   0  0  0  0  0  0  0  0  0  0  0  0
   26.1302  -23.2762    0.0000 C   0  0  0  0  0  0  0  0  0  0  0  0
   25.3826  -21.9801    0.0000 C   0  0  0  0  0  0  0  0  0  0  0  0
   23.8800  -21.9853    0.0000 C   0  0  0  0  0  0  0  0  0  0  0  0
   23.1399  -23.2795    0.0000 C   0  0  0  0  0  0  0  0  0  0  0  0
   28.3798  -24.5758    0.0000 N   0  0  0  0  0  0  0  0  0  0  0  0
   27.7605  -25.9486    0.0000 C   0  0  0  0  0  0  0  0  0  0  0  0
   28.8784  -26.9592    0.0000 C   0  0  0  0  0  0  0  0  0  0  0  0
   30.1851  -26.2083    0.0000 C   0  0  0  0  0  0  0  0  0  0  0  0
   29.8745  -24.7338    0.0000 C   0  0  0  0  0  0  0  0  0  0  0  0
   30.8797  -23.6204    0.0000 C   0  0  0  0  0  0  0  0  0  0  0  0
   32.3465  -23.9340    0.0000 N   0  0  0  0  0  0  0  0  0  0  0  0
   30.4179  -22.1932    0.0000 O   0  0  0  0  0  0  0  0  0  0  0  0
   32.8083  -25.3612    0.0000 O   0  0  0  0  0  0  0  0  0  0  0  0
   28.8927  -28.4583    0.0000 N   0  0  0  0  0  0  0  0  0  0  0  0
   27.6008  -29.2208    0.0000 C   0  0  0  0  0  0  0  0  0  0  0  0
   27.6152  -30.7206    0.0000 O   0  0  0  0  0  0  0  0  0  0  0  0
   26.2949  -28.4831    0.0000 C   0  0  0  0  0  0  0  0  0  0  0  0
   25.0030  -29.2454    0.0000 N   0  0  0  0  0  0  0  0  0  0  0  0
   23.6968  -28.5079    0.0000 C   0  0  0  0  0  0  0  0  0  0  0  0
   22.4050  -29.2702    0.0000 C   0  0  0  0  0  0  0  0  0  0  0  0
   23.6825  -27.0080    0.0000 O   0  0  0  0  0  0  0  0  0  0  0  0
   21.0990  -28.5326    0.0000 N   0  0  0  0  0  0  0  0  0  0  0  0
   22.4193  -30.7702    0.0000 C   0  0  0  0  0  0  0  0  0  0  0  0
   21.1274  -31.5325    0.0000 C   0  0  0  0  0  0  0  0  0  0  0  0
   19.8227  -30.8005    0.0000 C   0  0  0  0  0  0  0  0  0  0  0  0
   18.5448  -31.5617    0.0000 C   0  0  0  0  0  0  0  0  0  0  0  0
   18.5465  -33.0631    0.0000 C   0  0  0  0  0  0  0  0  0  0  0  0
   19.8605  -33.8003    0.0000 C   0  0  0  0  0  0  0  0  0  0  0  0
   21.1460  -33.0349    0.0000 C   0  0  0  0  0  0  0  0  0  0  0  0
   21.6399  -23.2839    0.0000 O   0  0  0  0  0  0  0  0  0  0  0  0
   20.8938  -24.5853    0.0000 C   0  0  0  0  0  0  0  0  0  0  0  0
  2  1  2  0  0  0  0
  3  2  2  0  0  0  0
  4  5  2  0  0  0  0
  5  6  1  0  0  0  0
  6  7  2  0  0  0  0
  7  8  1  0  0  0  0
  8  9  2  0  0  0  0
  9  4  1  0  0  0  0
  6  2  1  0  0  0  0
  2 10  1  0  0  0  0
 10 11  1  0  0  0  0
 11 12  1  0  0  0  0
 12 13  1  0  0  0  0
 13 14  1  0  0  0  0
 14 10  1  0  0  0  0
 14 15  1  6  0  0  0
 15 16  1  0  0  0  0
 15 17  2  0  0  0  0
 16 18  1  0  0  0  0
 12 19  1  6  0  0  0
 19 20  1  0  0  0  0
 20 21  2  0  0  0  0
 20 22  1  0  0  0  0
 22 23  1  0  0  0  0
 23 24  1  0  0  0  0
 24 25  1  0  0  0  0
 24 26  2  0  0  0  0
 25 27  1  0  0  0  0
 25 28  1  6  0  0  0
 28 29  1  0  0  0  0
 29 30  2  0  0  0  0
 30 31  1  0  0  0  0
 31 32  2  0  0  0  0
 32 33  1  0  0  0  0
 33 34  2  0  0  0  0
 34 29  1  0  0  0  0
  9 35  1  0  0  0  0
 35 36  1  0  0  0  0
M  END
> <Value>
4.027704571388861

> <Relation>
=

> <SourceURI>
mol:CHEMBL3261758

$$$$

Generated by Molecular Materials Informatics

 33 34  0  0  0  0  0  0  0  0999 V2000
   35.0837  -21.7167    0.0000 O   0  0  0  0  0  0  0  0  0  0  0  0
   35.0913  -23.2167    0.0000 S   0  0  0  0  0  0  0  0  0  0  0  0
   36.3864  -22.4603    0.0000 O   0  0  0  0  0  0  0  0  0  0  0  0
   31.3488  -24.5148    0.0000 C   0  0  0  0  0  0  0  0  0  0  0  0
   32.8455  -24.5168    0.0000 C   0  0  0  0  0  0  0  0  0  0  0  0
   33.5924  -23.2239    0.0000 C   0  0  0  0  0  0  0  0  0  0  0  0
   32.8446  -21.9278    0.0000 C   0  0  0  0  0  0  0  0  0  0  0  0
   31.3422  -21.9330    0.0000 C   0  0  0  0  0  0  0  0  0  0  0  0
   30.6021  -23.2270    0.0000 C   0  0  0  0  0  0  0  0  0  0  0  0
   35.8420  -24.5235    0.0000 N   0  0  0  0  0  0  0  0  0  0  0  0
   35.2227  -25.8961    0.0000 C   0  0  0  0  0  0  0  0  0  0  0  0
   36.3405  -26.9067    0.0000 C   0  0  0  0  0  0  0  0  0  0  0  0
   37.6473  -26.1560    0.0000 C   0  0  0  0  0  0  0  0  0  0  0  0
   37.3367  -24.6813    0.0000 C   0  0  0  0  0  0  0  0  0  0  0  0
   38.3418  -23.5679    0.0000 C   0  0  0  0  0  0  0  0  0  0  0  0
   39.8086  -23.8816    0.0000 N   0  0  0  0  0  0  0  0  0  0  0  0
   37.8800  -22.1407    0.0000 O   0  0  0  0  0  0  0  0  0  0  0  0
   40.2704  -25.3087    0.0000 O   0  0  0  0  0  0  0  0  0  0  0  0
   36.3549  -28.4060    0.0000 N   0  0  0  0  0  0  0  0  0  0  0  0
   35.0630  -29.1683    0.0000 C   0  0  0  0  0  0  0  0  0  0  0  0
   35.0773  -30.6681    0.0000 O   0  0  0  0  0  0  0  0  0  0  0  0
   33.7568  -28.4308    0.0000 C   0  0  0  0  0  0  0  0  0  0  0  0
   32.4652  -29.1931    0.0000 N   0  0  0  0  0  0  0  0  0  0  0  0
   31.1590  -28.4556    0.0000 C   0  0  0  0  0  0  0  0  0  0  0  0
   29.8671  -29.2179    0.0000 C   0  0  0  0  0  0  0  0  0  0  0  0
   31.1447  -26.9556    0.0000 O   0  0  0  0  0  0  0  0  0  0  0  0
   28.5610  -28.4803    0.0000 N   0  0  0  0  0  0  0  0  0  0  0  0
   29.8815  -30.7177    0.0000 C   0  0  0  0  0  0  0  0  0  0  0  0
   28.5896  -31.4802    0.0000 C   0  0  0  0  0  0  0  0  0  0  0  0
   28.6039  -32.9800    0.0000 S   0  0  0  0  0  0  0  0  0  0  0  0
   27.3121  -33.7425    0.0000 C   0  0  0  0  0  0  0  0  0  0  0  0
   29.1021  -23.2316    0.0000 O   0  0  0  0  0  0  0  0  0  0  0  0
   28.3482  -21.9348    0.0000 C   0  0  0  0  0  0  0  0  0  0  0  0
  2  1  2  0  0  0  0
  3  2  2  0  0  0  0
  4  5  2  0  0  0  0
  5  6  1  0  0  0  0
  6  7  2  0  0  0  0
  7  8  1  0  0  0  0
  8  9  2  0  0  0  0
  9  4  1  0  0  0  0
  6  2  1  0  0  0  0
  2 10  1  0  0  0  0
 10 11  1  0  0  0  0
 11 12  1  0  0  0  0
 12 13  1  0  0  0  0
 13 14  1  0  0  0  0
 14 10  1  0  0  0  0
 14 15  1  6  0  0  0
 15 16  1  0  0  0  0
 15 17  2  0  0  0  0
 16 18  1  0  0  0  0
 12 19  1  6  0  0  0
 19 20  1  0  0  0  0
 20 21  2  0  0  0  0
 20 22  1  0  0  0  0
 22 23  1  0  0  0  0
 23 24  1  0  0  0  0
 24 25  1  0  0  0  0
 24 26  2  0  0  0  0
 25 27  1  0  0  0  0
 25 28  1  6  0  0  0
 28 29  1  0  0  0  0
 29 30  1  0  0  0  0
 30 31  1  0  0  0  0
  9 32  1  0  0  0  0
 32 33  1  0  0  0  0
M  END
> <Value>
4.0

> <Relation>
<

> <SourceURI>
mol:CHEMBL3261759

$$$$

Generated by Molecular Materials Informatics

 29 30  0  0  0  0  0  0  0  0999 V2000
    5.9667    1.4309    0.0000 O   0  0  0  0  0  0  0  0  0  0  0  0
    5.9742   -0.0691    0.0000 S   0  0  0  0  0  0  0  0  0  0  0  0
    7.2694    0.6874    0.0000 O   0  0  0  0  0  0  0  0  0  0  0  0
    2.2317   -1.3672    0.0000 C   0  0  0  0  0  0  0  0  0  0  0  0
    3.7284   -1.3694    0.0000 C   0  0  0  0  0  0  0  0  0  0  0  0
    4.4753   -0.0762    0.0000 C   0  0  0  0  0  0  0  0  0  0  0  0
    3.7275    1.2198    0.0000 C   0  0  0  0  0  0  0  0  0  0  0  0
    2.2251    1.2147    0.0000 C   0  0  0  0  0  0  0  0  0  0  0  0
    1.4850   -0.0794    0.0000 C   0  0  0  0  0  0  0  0  0  0  0  0
    6.7250   -1.3758    0.0000 N   0  0  0  0  0  0  0  0  0  0  0  0
    6.1056   -2.7484    0.0000 C   0  0  0  0  0  0  0  0  0  0  0  0
    7.2235   -3.7593    0.0000 C   0  0  0  0  0  0  0  0  0  0  0  0
    8.5302   -3.0083    0.0000 C   0  0  0  0  0  0  0  0  0  0  0  0
    8.2196   -1.5337    0.0000 C   0  0  0  0  0  0  0  0  0  0  0  0
    9.2248   -0.4202    0.0000 C   0  0  0  0  0  0  0  0  0  0  0  0
   10.6916   -0.7339    0.0000 N   0  0  0  0  0  0  0  0  0  0  0  0
    8.7630    1.0069    0.0000 O   0  0  0  0  0  0  0  0  0  0  0  0
   11.1534   -2.1610    0.0000 O   0  0  0  0  0  0  0  0  0  0  0  0
    7.2378   -5.2583    0.0000 N   0  0  0  0  0  0  0  0  0  0  0  0
    5.9460   -6.0206    0.0000 C   0  0  0  0  0  0  0  0  0  0  0  0
    5.9603   -7.5207    0.0000 O   0  0  0  0  0  0  0  0  0  0  0  0
    4.6398   -5.2831    0.0000 C   0  0  0  0  0  0  0  0  0  0  0  0
    3.3479   -6.0454    0.0000 N   0  0  0  0  0  0  0  0  0  0  0  0
    2.0419   -5.3079    0.0000 C   0  0  0  0  0  0  0  0  0  0  0  0
    0.7501   -6.0702    0.0000 C   0  0  0  0  0  0  0  0  0  0  0  0
    2.0276   -3.8079    0.0000 O   0  0  0  0  0  0  0  0  0  0  0  0
   -0.5561   -5.3327    0.0000 N   0  0  0  0  0  0  0  0  0  0  0  0
    0.7644   -7.5700    0.0000 C   0  0  0  0  0  0  0  0  0  0  0  0
   -0.0150   -0.0839    0.0000 Cl  0  0  0  0  0  0  0  0  0  0  0  0
  2  1  2  0  0  0  0
  3  2  2  0  0  0  0
  4  5  2  0  0  0  0
  5  6  1  0  0  0  0
  6  7  2  0  0  0  0
  7  8  1  0  0  0  0
  8  9  2  0  0  0  0
  9  4  1  0  0  0  0
  6  2  1  0  0  0  0
  2 10  1  0  0  0  0
 10 11  1  0  0  0  0
 11 12  1  0  0  0  0
 12 13  1  0  0  0  0
 13 14  1  0  0  0  0
 14 10  1  0  0  0  0
 14 15  1  6  0  0  0
 15 16  1  0  0  0  0
 15 17  2  0  0  0  0
 16 18  1  0  0  0  0
 12 19  1  6  0  0  0
 19 20  1  0  0  0  0
 20 21  2  0  0  0  0
 20 22  1  0  0  0  0
 22 23  1  0  0  0  0
 23 24  1  0  0  0  0
 24 25  1  0  0  0  0
 24 26  2  0  0  0  0
 25 27  1  0  0  0  0
 25 28  1  6  0  0  0
  9 29  1  0  0  0  0
M  END
> <Value>
4.0

> <Relation>
<

> <SourceURI>
mol:CHEMBL3261760

$$$$

Generated by Molecular Materials Informatics

 31 32  0  0  0  0  0  0  0  0999 V2000
   14.7123    0.8090    0.0000 O   0  0  0  0  0  0  0  0  0  0  0  0
   14.7199   -0.6910    0.0000 S   0  0  0  0  0  0  0  0  0  0  0  0
   16.0150    0.0656    0.0000 O   0  0  0  0  0  0  0  0  0  0  0  0
   10.9774   -1.9889    0.0000 C   0  0  0  0  0  0  0  0  0  0  0  0
   12.4741   -1.9911    0.0000 C   0  0  0  0  0  0  0  0  0  0  0  0
   13.2210   -0.6979    0.0000 C   0  0  0  0  0  0  0  0  0  0  0  0
   12.4732    0.5981    0.0000 C   0  0  0  0  0  0  0  0  0  0  0  0
   10.9708    0.5930    0.0000 C   0  0  0  0  0  0  0  0  0  0  0  0
   10.2307   -0.7012    0.0000 C   0  0  0  0  0  0  0  0  0  0  0  0
   15.4706   -1.9975    0.0000 N   0  0  0  0  0  0  0  0  0  0  0  0
   14.8513   -3.3703    0.0000 C   0  0  0  0  0  0  0  0  0  0  0  0
   15.9691   -4.3809    0.0000 C   0  0  0  0  0  0  0  0  0  0  0  0
   17.2758   -3.6300    0.0000 C   0  0  0  0  0  0  0  0  0  0  0  0
   16.9653   -2.1555    0.0000 C   0  0  0  0  0  0  0  0  0  0  0  0
   17.9704   -1.0421    0.0000 C   0  0  0  0  0  0  0  0  0  0  0  0
   19.4372   -1.3558    0.0000 N   0  0  0  0  0  0  0  0  0  0  0  0
   17.5086    0.3852    0.0000 O   0  0  0  0  0  0  0  0  0  0  0  0
   19.8988   -2.7829    0.0000 O   0  0  0  0  0  0  0  0  0  0  0  0
   15.9834   -5.8800    0.0000 N   0  0  0  0  0  0  0  0  0  0  0  0
   14.6916   -6.6423    0.0000 C   0  0  0  0  0  0  0  0  0  0  0  0
   14.7059   -8.1423    0.0000 O   0  0  0  0  0  0  0  0  0  0  0  0
   13.3854   -5.9048    0.0000 C   0  0  0  0  0  0  0  0  0  0  0  0
   12.0936   -6.6671    0.0000 N   0  0  0  0  0  0  0  0  0  0  0  0
   10.7876   -5.9296    0.0000 C   0  0  0  0  0  0  0  0  0  0  0  0
    9.4957   -6.6919    0.0000 C   0  0  0  0  0  0  0  0  0  0  0  0
   10.7733   -4.4296    0.0000 O   0  0  0  0  0  0  0  0  0  0  0  0
    8.1896   -5.9544    0.0000 N   0  0  0  0  0  0  0  0  0  0  0  0
    9.5101   -8.1919    0.0000 C   0  0  0  0  0  0  0  0  0  0  0  0
    8.7307   -0.7056    0.0000 Cl  0  0  0  0  0  0  0  0  0  0  0  0
   10.8162   -8.9294    0.0000 C   0  0  0  0  0  0  0  0  0  0  0  0
    8.2182   -8.9542    0.0000 C   0  0  0  0  0  0  0  0  0  0  0  0
  2  1  2  0  0  0  0
  3  2  2  0  0  0  0
  4  5  2  0  0  0  0
  5  6  1  0  0  0  0
  6  7  2  0  0  0  0
  7  8  1  0  0  0  0
  8  9  2  0  0  0  0
  9  4  1  0  0  0  0
  6  2  1  0  0  0  0
  2 10  1  0  0  0  0
 10 11  1  0  0  0  0
 11 12  1  0  0  0  0
 12 13  1  0  0  0  0
 13 14  1  0  0  0  0
 14 10  1  0  0  0  0
 14 15  1  6  0  0  0
 15 16  1  0  0  0  0
 15 17  2  0  0  0  0
 16 18  1  0  0  0  0
 12 19  1  6  0  0  0
 19 20  1  0  0  0  0
 20 21  2  0  0  0  0
 20 22  1  0  0  0  0
 22 23  1  0  0  0  0
 23 24  1  0  0  0  0
 24 25  1  0  0  0  0
 24 26  2  0  0  0  0
 25 27  1  0  0  0  0
 25 28  1  6  0  0  0
  9 29  1  0  0  0  0
 28 30  1  0  0  0  0
 28 31  1  0  0  0  0
M  END
> <Value>
4.099196065189631

> <Relation>
=

> <SourceURI>
mol:CHEMBL3261761

$$$$

Generated by Molecular Materials Informatics

 32 33  0  0  0  0  0  0  0  0999 V2000
    5.9272   -6.8829    0.0000 O   0  0  0  0  0  0  0  0  0  0  0  0
    5.9347   -8.3827    0.0000 S   0  0  0  0  0  0  0  0  0  0  0  0
    7.2301   -7.6263    0.0000 O   0  0  0  0  0  0  0  0  0  0  0  0
    2.1923   -9.6808    0.0000 C   0  0  0  0  0  0  0  0  0  0  0  0
    3.6890   -9.6830    0.0000 C   0  0  0  0  0  0  0  0  0  0  0  0
    4.4358   -8.3899    0.0000 C   0  0  0  0  0  0  0  0  0  0  0  0
    3.6880   -7.0938    0.0000 C   0  0  0  0  0  0  0  0  0  0  0  0
    2.1857   -7.0989    0.0000 C   0  0  0  0  0  0  0  0  0  0  0  0
    1.4456   -8.3932    0.0000 C   0  0  0  0  0  0  0  0  0  0  0  0
    6.6855   -9.6894    0.0000 N   0  0  0  0  0  0  0  0  0  0  0  0
    6.0662  -11.0622    0.0000 C   0  0  0  0  0  0  0  0  0  0  0  0
    7.1840  -12.0729    0.0000 C   0  0  0  0  0  0  0  0  0  0  0  0
    8.4907  -11.3220    0.0000 C   0  0  0  0  0  0  0  0  0  0  0  0
    8.1802   -9.8475    0.0000 C   0  0  0  0  0  0  0  0  0  0  0  0
    9.1853   -8.7339    0.0000 C   0  0  0  0  0  0  0  0  0  0  0  0
   10.6521   -9.0475    0.0000 N   0  0  0  0  0  0  0  0  0  0  0  0
    8.7235   -7.3067    0.0000 O   0  0  0  0  0  0  0  0  0  0  0  0
   11.1139  -10.4747    0.0000 O   0  0  0  0  0  0  0  0  0  0  0  0
    7.1983  -13.5720    0.0000 N   0  0  0  0  0  0  0  0  0  0  0  0
    5.9065  -14.3343    0.0000 C   0  0  0  0  0  0  0  0  0  0  0  0
    5.9208  -15.8343    0.0000 O   0  0  0  0  0  0  0  0  0  0  0  0
    4.6003  -13.5968    0.0000 C   0  0  0  0  0  0  0  0  0  0  0  0
    3.3086  -14.3591    0.0000 N   0  0  0  0  0  0  0  0  0  0  0  0
    2.0025  -13.6215    0.0000 C   0  0  0  0  0  0  0  0  0  0  0  0
    0.7106  -14.3838    0.0000 C   0  0  0  0  0  0  0  0  0  0  0  0
    1.9882  -12.1215    0.0000 O   0  0  0  0  0  0  0  0  0  0  0  0
   -0.5956  -13.6463    0.0000 N   0  0  0  0  0  0  0  0  0  0  0  0
    0.7249  -15.8838    0.0000 C   0  0  0  0  0  0  0  0  0  0  0  0
   -0.0544   -8.3976    0.0000 Cl  0  0  0  0  0  0  0  0  0  0  0  0
   -0.5669  -16.6461    0.0000 C   0  0  0  0  0  0  0  0  0  0  0  0
   -0.5526  -18.1461    0.0000 C   0  0  0  0  0  0  0  0  0  0  0  0
   -1.8729  -15.9086    0.0000 C   0  0  0  0  0  0  0  0  0  0  0  0
  2  1  2  0  0  0  0
  3  2  2  0  0  0  0
  4  5  2  0  0  0  0
  5  6  1  0  0  0  0
  6  7  2  0  0  0  0
  7  8  1  0  0  0  0
  8  9  2  0  0  0  0
  9  4  1  0  0  0  0
  6  2  1  0  0  0  0
  2 10  1  0  0  0  0
 10 11  1  0  0  0  0
 11 12  1  0  0  0  0
 12 13  1  0  0  0  0
 13 14  1  0  0  0  0
 14 10  1  0  0  0  0
 14 15  1  6  0  0  0
 15 16  1  0  0  0  0
 15 17  2  0  0  0  0
 16 18  1  0  0  0  0
 12 19  1  6  0  0  0
 19 20  1  0  0  0  0
 20 21  2  0  0  0  0
 20 22  1  0  0  0  0
 22 23  1  0  0  0  0
 23 24  1  0  0  0  0
 24 25  1  0  0  0  0
 24 26  2  0  0  0  0
 25 27  1  0  0  0  0
 25 28  1  6  0  0  0
  9 29  1  0  0  0  0
 28 30  1  0  0  0  0
 30 31  1  0  0  0  0
 30 32  1  0  0  0  0
M  END
> <Value>
4.14092177525303

> <Relation>
=

> <SourceURI>
mol:CHEMBL3261762

$$$$

Generated by Molecular Materials Informatics

 32 33  0  0  0  0  0  0  0  0999 V2000
   14.2459   -7.2137    0.0000 O   0  0  0  0  0  0  0  0  0  0  0  0
   14.2534   -8.7136    0.0000 S   0  0  0  0  0  0  0  0  0  0  0  0
   15.5488   -7.9571    0.0000 O   0  0  0  0  0  0  0  0  0  0  0  0
   10.5109  -10.0117    0.0000 C   0  0  0  0  0  0  0  0  0  0  0  0
   12.0076  -10.0139    0.0000 C   0  0  0  0  0  0  0  0  0  0  0  0
   12.7545   -8.7207    0.0000 C   0  0  0  0  0  0  0  0  0  0  0  0
   12.0067   -7.4247    0.0000 C   0  0  0  0  0  0  0  0  0  0  0  0
   10.5043   -7.4298    0.0000 C   0  0  0  0  0  0  0  0  0  0  0  0
    9.7643   -8.7240    0.0000 C   0  0  0  0  0  0  0  0  0  0  0  0
   15.0042  -10.0203    0.0000 N   0  0  0  0  0  0  0  0  0  0  0  0
   14.3848  -11.3931    0.0000 C   0  0  0  0  0  0  0  0  0  0  0  0
   15.5027  -12.4037    0.0000 C   0  0  0  0  0  0  0  0  0  0  0  0
   16.8094  -11.6528    0.0000 C   0  0  0  0  0  0  0  0  0  0  0  0
   16.4988  -10.1783    0.0000 C   0  0  0  0  0  0  0  0  0  0  0  0
   17.5040   -9.0647    0.0000 C   0  0  0  0  0  0  0  0  0  0  0  0
   18.9707   -9.3784    0.0000 N   0  0  0  0  0  0  0  0  0  0  0  0
   17.0421   -7.6376    0.0000 O   0  0  0  0  0  0  0  0  0  0  0  0
   19.4326  -10.8057    0.0000 O   0  0  0  0  0  0  0  0  0  0  0  0
   15.5170  -13.9028    0.0000 N   0  0  0  0  0  0  0  0  0  0  0  0
   14.2252  -14.6651    0.0000 C   0  0  0  0  0  0  0  0  0  0  0  0
   14.2395  -16.1651    0.0000 O   0  0  0  0  0  0  0  0  0  0  0  0
   12.9190  -13.9276    0.0000 C   0  0  0  0  0  0  0  0  0  0  0  0
   11.6273  -14.6899    0.0000 N   0  0  0  0  0  0  0  0  0  0  0  0
   10.3212  -13.9524    0.0000 C   0  0  0  0  0  0  0  0  0  0  0  0
    9.0293  -14.7147    0.0000 C   0  0  0  0  0  0  0  0  0  0  0  0
   10.3068  -12.4524    0.0000 O   0  0  0  0  0  0  0  0  0  0  0  0
    7.7231  -13.9771    0.0000 N   0  0  0  0  0  0  0  0  0  0  0  0
    9.0436  -16.2147    0.0000 C   0  0  0  0  0  0  0  0  0  0  0  0
    7.7518  -16.9770    0.0000 C   0  0  0  0  0  0  0  0  0  0  0  0
   10.3498  -16.9522    0.0000 C   0  0  0  0  0  0  0  0  0  0  0  0
    7.7661  -18.4770    0.0000 C   0  0  0  0  0  0  0  0  0  0  0  0
    8.2643   -8.7284    0.0000 Cl  0  0  0  0  0  0  0  0  0  0  0  0
  2  1  2  0  0  0  0
  3  2  2  0  0  0  0
  4  5  2  0  0  0  0
  5  6  1  0  0  0  0
  6  7  2  0  0  0  0
  7  8  1  0  0  0  0
  8  9  2  0  0  0  0
  9  4  1  0  0  0  0
  6  2  1  0  0  0  0
  2 10  1  0  0  0  0
 10 11  1  0  0  0  0
 11 12  1  0  0  0  0
 12 13  1  0  0  0  0
 13 14  1  0  0  0  0
 14 10  1  0  0  0  0
 14 15  1  6  0  0  0
 15 16  1  0  0  0  0
 15 17  2  0  0  0  0
 16 18  1  0  0  0  0
 12 19  1  6  0  0  0
 19 20  1  0  0  0  0
 20 21  2  0  0  0  0
 20 22  1  0  0  0  0
 22 23  1  0  0  0  0
 23 24  1  0  0  0  0
 24 25  1  0  0  0  0
 24 26  2  0  0  0  0
 25 27  1  6  0  0  0
 25 28  1  0  0  0  0
 28 29  1  0  0  0  0
 28 30  1  1  0  0  0
 29 31  1  0  0  0  0
  9 32  1  0  0  0  0
M  END
> <Value>
4.063335486999924

> <Relation>
=

> <SourceURI>
mol:CHEMBL3261763

$$$$

Generated by Molecular Materials Informatics

 35 37  0  0  0  0  0  0  0  0999 V2000
   23.7397   -7.1822    0.0000 O   0  0  0  0  0  0  0  0  0  0  0  0
   23.7472   -8.6823    0.0000 S   0  0  0  0  0  0  0  0  0  0  0  0
   25.0435   -7.9220    0.0000 O   0  0  0  0  0  0  0  0  0  0  0  0
   20.0086   -9.9813    0.0000 C   0  0  0  0  0  0  0  0  0  0  0  0
   21.5052   -9.9833    0.0000 C   0  0  0  0  0  0  0  0  0  0  0  0
   22.2483   -8.6892    0.0000 C   0  0  0  0  0  0  0  0  0  0  0  0
   21.5045   -7.3922    0.0000 C   0  0  0  0  0  0  0  0  0  0  0  0
   20.0020   -7.3973    0.0000 C   0  0  0  0  0  0  0  0  0  0  0  0
   19.2579   -8.6925    0.0000 C   0  0  0  0  0  0  0  0  0  0  0  0
   24.5018   -9.9897    0.0000 N   0  0  0  0  0  0  0  0  0  0  0  0
   23.8779  -11.3631    0.0000 C   0  0  0  0  0  0  0  0  0  0  0  0
   24.9978  -12.3688    0.0000 C   0  0  0  0  0  0  0  0  0  0  0  0
   26.3054  -11.6217    0.0000 C   0  0  0  0  0  0  0  0  0  0  0  0
   25.9964  -10.1470    0.0000 C   0  0  0  0  0  0  0  0  0  0  0  0
   26.9965   -9.0317    0.0000 C   0  0  0  0  0  0  0  0  0  0  0  0
   28.4634   -9.3438    0.0000 N   0  0  0  0  0  0  0  0  0  0  0  0
   26.5370   -7.6041    0.0000 O   0  0  0  0  0  0  0  0  0  0  0  0
   28.9303  -10.7712    0.0000 O   0  0  0  0  0  0  0  0  0  0  0  0
   25.0120  -13.8679    0.0000 N   0  0  0  0  0  0  0  0  0  0  0  0
   23.7192  -14.6340    0.0000 C   0  0  0  0  0  0  0  0  0  0  0  0
   23.7335  -16.1337    0.0000 O   0  0  0  0  0  0  0  0  0  0  0  0
   22.4121  -13.8925    0.0000 C   0  0  0  0  0  0  0  0  0  0  0  0
   21.1193  -14.6585    0.0000 N   0  0  0  0  0  0  0  0  0  0  0  0
   19.8122  -13.9172    0.0000 C   0  0  0  0  0  0  0  0  0  0  0  0
   18.5269  -14.6831    0.0000 C   0  0  0  0  0  0  0  0  0  0  0  0
   19.7980  -12.4172    0.0000 O   0  0  0  0  0  0  0  0  0  0  0  0
   17.2198  -13.9493    0.0000 N   0  0  0  0  0  0  0  0  0  0  0  0
   18.5411  -16.1831    0.0000 C   0  0  0  0  0  0  0  0  0  0  0  0
   17.2483  -16.9492    0.0000 C   0  0  0  0  0  0  0  0  0  0  0  0
   15.9425  -16.2132    0.0000 C   0  0  0  0  0  0  0  0  0  0  0  0
   14.6636  -16.9780    0.0000 C   0  0  0  0  0  0  0  0  0  0  0  0
   14.6652  -18.4796    0.0000 C   0  0  0  0  0  0  0  0  0  0  0  0
   15.9801  -19.2130    0.0000 C   0  0  0  0  0  0  0  0  0  0  0  0
   17.2667  -18.4515    0.0000 C   0  0  0  0  0  0  0  0  0  0  0  0
   17.7580   -8.6969    0.0000 Cl  0  0  0  0  0  0  0  0  0  0  0  0
  2  1  2  0  0  0  0
  3  2  2  0  0  0  0
  4  5  2  0  0  0  0
  5  6  1  0  0  0  0
  6  7  2  0  0  0  0
  7  8  1  0  0  0  0
  8  9  2  0  0  0  0
  9  4  1  0  0  0  0
  6  2  1  0  0  0  0
  2 10  1  0  0  0  0
 10 11  1  0  0  0  0
 11 12  1  0  0  0  0
 12 13  1  0  0  0  0
 13 14  1  0  0  0  0
 14 10  1  0  0  0  0
 14 15  1  6  0  0  0
 15 16  1  0  0  0  0
 15 17  2  0  0  0  0
 16 18  1  0  0  0  0
 12 19  1  6  0  0  0
 19 20  1  0  0  0  0
 20 21  2  0  0  0  0
 20 22  1  0  0  0  0
 22 23  1  0  0  0  0
 23 24  1  0  0  0  0
 24 25  1  0  0  0  0
 24 26  2  0  0  0  0
 25 27  1  0  0  0  0
 25 28  1  6  0  0  0
 28 29  1  0  0  0  0
 29 30  2  0  0  0  0
 30 31  1  0  0  0  0
 31 32  2  0  0  0  0
 32 33  1  0  0  0  0
 33 34  2  0  0  0  0
 34 29  1  0  0  0  0
  9 35  1  0  0  0  0
M  END
> <Value>
4.04599883231843

> <Relation>
=

> <SourceURI>
mol:CHEMBL3261764

$$$$

Generated by Molecular Materials Informatics

 32 33  0  0  0  0  0  0  0  0999 V2000
   33.4699   -7.8700    0.0000 O   0  0  0  0  0  0  0  0  0  0  0  0
   33.4776   -9.3700    0.0000 S   0  0  0  0  0  0  0  0  0  0  0  0
   34.7728   -8.6134    0.0000 O   0  0  0  0  0  0  0  0  0  0  0  0
   29.7349  -10.6681    0.0000 C   0  0  0  0  0  0  0  0  0  0  0  0
   31.2318  -10.6701    0.0000 C   0  0  0  0  0  0  0  0  0  0  0  0
   31.9787   -9.3769    0.0000 C   0  0  0  0  0  0  0  0  0  0  0  0
   31.2309   -8.0809    0.0000 C   0  0  0  0  0  0  0  0  0  0  0  0
   29.7285   -8.0860    0.0000 C   0  0  0  0  0  0  0  0  0  0  0  0
   28.9882   -9.3802    0.0000 C   0  0  0  0  0  0  0  0  0  0  0  0
   34.2284  -10.6765    0.0000 N   0  0  0  0  0  0  0  0  0  0  0  0
   33.6090  -12.0493    0.0000 C   0  0  0  0  0  0  0  0  0  0  0  0
   34.7267  -13.0600    0.0000 C   0  0  0  0  0  0  0  0  0  0  0  0
   36.0334  -12.3090    0.0000 C   0  0  0  0  0  0  0  0  0  0  0  0
   35.7230  -10.8346    0.0000 C   0  0  0  0  0  0  0  0  0  0  0  0
   36.7280   -9.7211    0.0000 C   0  0  0  0  0  0  0  0  0  0  0  0
   38.1950  -10.0348    0.0000 N   0  0  0  0  0  0  0  0  0  0  0  0
   36.2664   -8.2940    0.0000 O   0  0  0  0  0  0  0  0  0  0  0  0
   38.6566  -11.4619    0.0000 O   0  0  0  0  0  0  0  0  0  0  0  0
   34.7412  -14.5591    0.0000 N   0  0  0  0  0  0  0  0  0  0  0  0
   33.4494  -15.3214    0.0000 C   0  0  0  0  0  0  0  0  0  0  0  0
   33.4637  -16.8214    0.0000 O   0  0  0  0  0  0  0  0  0  0  0  0
   32.1432  -14.5838    0.0000 C   0  0  0  0  0  0  0  0  0  0  0  0
   30.8513  -15.3461    0.0000 N   0  0  0  0  0  0  0  0  0  0  0  0
   29.5451  -14.6086    0.0000 C   0  0  0  0  0  0  0  0  0  0  0  0
   28.2535  -15.3709    0.0000 C   0  0  0  0  0  0  0  0  0  0  0  0
   29.5310  -13.1088    0.0000 O   0  0  0  0  0  0  0  0  0  0  0  0
   26.9473  -14.6334    0.0000 N   0  0  0  0  0  0  0  0  0  0  0  0
   28.2678  -16.8709    0.0000 C   0  0  0  0  0  0  0  0  0  0  0  0
   26.9759  -17.6332    0.0000 C   0  0  0  0  0  0  0  0  0  0  0  0
   26.9902  -19.1332    0.0000 S   0  0  0  0  0  0  0  0  0  0  0  0
   25.6984  -19.8955    0.0000 C   0  0  0  0  0  0  0  0  0  0  0  0
   27.4884   -9.3847    0.0000 Cl  0  0  0  0  0  0  0  0  0  0  0  0
  2  1  2  0  0  0  0
  3  2  2  0  0  0  0
  4  5  2  0  0  0  0
  5  6  1  0  0  0  0
  6  7  2  0  0  0  0
  7  8  1  0  0  0  0
  8  9  2  0  0  0  0
  9  4  1  0  0  0  0
  6  2  1  0  0  0  0
  2 10  1  0  0  0  0
 10 11  1  0  0  0  0
 11 12  1  0  0  0  0
 12 13  1  0  0  0  0
 13 14  1  0  0  0  0
 14 10  1  0  0  0  0
 14 15  1  6  0  0  0
 15 16  1  0  0  0  0
 15 17  2  0  0  0  0
 16 18  1  0  0  0  0
 12 19  1  6  0  0  0
 19 20  1  0  0  0  0
 20 21  2  0  0  0  0
 20 22  1  0  0  0  0
 22 23  1  0  0  0  0
 23 24  1  0  0  0  0
 24 25  1  0  0  0  0
 24 26  2  0  0  0  0
 25 27  1  0  0  0  0
 25 28  1  6  0  0  0
 28 29  1  0  0  0  0
 29 30  1  0  0  0  0
 30 31  1  0  0  0  0
  9 32  1  0  0  0  0
M  END
> <Value>
4.020907099361674

> <Relation>
=

> <SourceURI>
mol:CHEMBL3261765

$$$$

Generated by Molecular Materials Informatics

 32 34  0  0  0  0  0  0  0  0999 V2000
   -0.3788   -1.3161    0.0000 C   0  0  0  0  0  0  0  0  0  0  0  0
   -1.5924   -2.1977    0.0000 C   0  0  0  0  0  0  0  0  0  0  0  0
   -1.1288   -3.6242    0.0000 C   0  0  0  0  0  0  0  0  0  0  0  0
    0.3712   -3.6242    0.0000 N   0  0  0  0  0  0  0  0  0  0  0  0
    0.8346   -2.1977    0.0000 C   0  0  0  0  0  0  0  0  0  0  0  0
   -2.0106   -4.8379    0.0000 C   0  0  0  0  0  0  0  0  0  0  0  0
   -1.4004   -6.2081    0.0000 N   0  0  0  0  0  0  0  0  0  0  0  0
   -3.5023   -4.6810    0.0000 O   0  0  0  0  0  0  0  0  0  0  0  0
   -2.2821   -7.4217    0.0000 O   0  0  0  0  0  0  0  0  0  0  0  0
    1.2528   -4.8379    0.0000 C   0  0  0  0  0  0  0  0  0  0  0  0
    2.7446   -4.6810    0.0000 O   0  0  0  0  0  0  0  0  0  0  0  0
    0.6426   -6.2081    0.0000 C   0  0  0  0  0  0  0  0  0  0  0  0
    1.5243   -7.4217    0.0000 C   0  0  0  0  0  0  0  0  0  0  0  0
    0.9143   -8.7921    0.0000 C   0  0  0  0  0  0  0  0  0  0  0  0
   -0.5775   -8.9488    0.0000 C   0  0  0  0  0  0  0  0  0  0  0  0
   -1.1875  -10.3192    0.0000 C   0  0  0  0  0  0  0  0  0  0  0  0
   -0.3059  -11.5326    0.0000 C   0  0  0  0  0  0  0  0  0  0  0  0
    1.1859  -11.3759    0.0000 C   0  0  0  0  0  0  0  0  0  0  0  0
    1.7959  -10.0055    0.0000 C   0  0  0  0  0  0  0  0  0  0  0  0
   -0.9161  -12.9030    0.0000 O   0  0  0  0  0  0  0  0  0  0  0  0
   -0.0344  -14.1164    0.0000 C   0  0  0  0  0  0  0  0  0  0  0  0
    2.0675  -12.5893    0.0000 O   0  0  0  0  0  0  0  0  0  0  0  0
    3.5594  -12.4326    0.0000 C   0  0  0  0  0  0  0  0  0  0  0  0
   -0.3788    0.1839    0.0000 N   0  0  0  0  0  0  0  0  0  0  0  0
   -1.6779    0.9339    0.0000 C   0  0  0  0  0  0  0  0  0  0  0  0
   -2.9770    0.1839    0.0000 O   0  0  0  0  0  0  0  0  0  0  0  0
   -1.6779    2.4339    0.0000 C   0  0  0  0  0  0  0  0  0  0  0  0
   -2.9770    3.1839    0.0000 C   0  0  0  0  0  0  0  0  0  0  0  0
   -2.9770    4.6839    0.0000 N   0  0  0  0  0  0  0  0  0  0  0  0
   -1.6779    5.4339    0.0000 C   0  0  0  0  0  0  0  0  0  0  0  0
   -0.3788    4.6839    0.0000 C   0  0  0  0  0  0  0  0  0  0  0  0
   -0.3788    3.1839    0.0000 C   0  0  0  0  0  0  0  0  0  0  0  0
 15 16  1  0  0  0  0
  3  6  1  6  0  0  0
 16 17  2  0  0  0  0
  3  4  1  0  0  0  0
 17 18  1  0  0  0  0
  7  9  1  0  0  0  0
 18 19  2  0  0  0  0
 19 14  1  0  0  0  0
  4  5  1  0  0  0  0
 17 20  1  0  0  0  0
  4 10  1  0  0  0  0
 20 21  1  0  0  0  0
  5  1  1  0  0  0  0
 18 22  1  0  0  0  0
 10 11  2  0  0  0  0
 22 23  1  0  0  0  0
  1  2  1  0  0  0  0
  1 24  1  6  0  0  0
 10 12  1  0  0  0  0
 24 25  1  0  0  0  0
 25 26  2  0  0  0  0
 12 13  2  0  0  0  0
 25 27  1  0  0  0  0
  2  3  1  0  0  0  0
 27 28  2  0  0  0  0
 13 14  1  0  0  0  0
 28 29  1  0  0  0  0
  6  7  1  0  0  0  0
 29 30  2  0  0  0  0
 14 15  2  0  0  0  0
 30 31  1  0  0  0  0
  6  8  2  0  0  0  0
 31 32  2  0  0  0  0
 32 27  1  0  0  0  0
M  END
> <Value>
4.0

> <Relation>
<

> <SourceURI>
mol:CHEMBL472915

$$$$

Generated by Molecular Materials Informatics

 16 16  0  0  0  0  0  0  0  0999 V2000
    8.0941   -7.2602    0.0000 C   0  0  0  0  0  0  0  0  0  0  0  0
    8.0919   -8.7645    0.0000 C   0  0  0  0  0  0  0  0  0  0  0  0
    9.3915   -9.5153    0.0000 C   0  0  0  0  0  0  0  0  0  0  0  0
   10.6942   -8.7636    0.0000 C   0  0  0  0  0  0  0  0  0  0  0  0
   10.6890   -7.2536    0.0000 C   0  0  0  0  0  0  0  0  0  0  0  0
    9.3882   -6.5098    0.0000 C   0  0  0  0  0  0  0  0  0  0  0  0
    9.3839   -5.0098    0.0000 C   0  0  0  0  0  0  0  0  0  0  0  0
   10.6806   -4.2558    0.0000 O   0  0  0  0  0  0  0  0  0  0  0  0
    8.0826   -4.2637    0.0000 O   0  0  0  0  0  0  0  0  0  0  0  0
   11.9851   -6.4987    0.0000 C   0  0  0  0  0  0  0  0  0  0  0  0
   13.2869   -7.2438    0.0000 N   0  0  0  0  0  0  0  0  0  0  0  0
   11.9795   -4.9987    0.0000 O   0  0  0  0  0  0  0  0  0  0  0  0
   14.5833   -6.4889    0.0000 N   0  0  0  0  0  0  0  0  0  0  0  0
   15.8851   -7.2340    0.0000 C   0  0  0  0  0  0  0  0  0  0  0  0
   17.1813   -6.4791    0.0000 N   0  0  0  0  0  0  0  0  0  0  0  0
   15.8907   -8.7340    0.0000 S   0  0  0  0  0  0  0  0  0  0  0  0
  7  8  1  0  0  0  0
  7  9  2  0  0  0  0
  4  5  1  0  0  0  0
  5 10  1  0  0  0  0
  2  3  1  0  0  0  0
 10 11  1  0  0  0  0
  5  6  2  0  0  0  0
 10 12  2  0  0  0  0
  6  1  1  0  0  0  0
 11 13  1  0  0  0  0
  1  2  2  0  0  0  0
 13 14  1  0  0  0  0
  6  7  1  0  0  0  0
 14 15  1  0  0  0  0
  3  4  2  0  0  0  0
 14 16  2  0  0  0  0
M  END
> <Value>
3.0

> <Relation>
<

> <SourceURI>
mol:CHEMBL1935518

$$$$

Generated by Molecular Materials Informatics

 12 12  0  0  0  0  0  0  0  0999 V2000
   13.1640   -5.4574    0.0000 C   0  0  0  0  0  0  0  0  0  0  0  0
   14.5487   -4.8438    0.0000 C   0  0  0  0  0  0  0  0  0  0  0  0
   13.3250   -6.9394    0.0000 N   0  0  0  0  0  0  0  0  0  0  0  0
   11.8767   -4.7030    0.0000 C   0  0  0  0  0  0  0  0  0  0  0  0
   15.5479   -5.9636    0.0000 N   0  0  0  0  0  0  0  0  0  0  0  0
   14.8505   -3.3753    0.0000 C   0  0  0  0  0  0  0  0  0  0  0  0
   14.7936   -7.2544    0.0000 C   0  0  0  0  0  0  0  0  0  0  0  0
   10.5724   -5.4574    0.0000 N   0  0  0  0  0  0  0  0  0  0  0  0
    9.2649   -4.7030    0.0000 N   0  0  0  0  0  0  0  0  0  0  0  0
    7.9841   -5.4574    0.0000 C   0  0  0  0  0  0  0  0  0  0  0  0
    6.6766   -4.7030    0.0000 N   0  0  0  0  0  0  0  0  0  0  0  0
    7.9841   -6.9526    0.0000 S   0  0  0  0  0  0  0  0  0  0  0  0
  1  2  2  0  0  0  0
  1  3  1  0  0  0  0
  1  4  1  0  0  0  0
  2  5  1  0  0  0  0
  2  6  1  0  0  0  0
  3  7  2  0  0  0  0
  4  8  2  0  0  0  0
  8  9  1  0  0  0  0
  9 10  1  0  0  0  0
 10 11  1  0  0  0  0
 10 12  2  0  0  0  0
  5  7  1  0  0  0  0
M  END
> <Value>
3.0

> <Relation>
<

> <SourceURI>
mol:CHEMBL2170106

$$$$

Generated by Molecular Materials Informatics

 23 25  0  0  0  0  0  0  0  0999 V2000
   11.3951   -1.7208    0.0000 C   0  0  0  0  0  0  0  0  0  0  0  0
   11.3929   -3.2250    0.0000 C   0  0  0  0  0  0  0  0  0  0  0  0
   12.6926   -3.9757    0.0000 C   0  0  0  0  0  0  0  0  0  0  0  0
   12.6893   -0.9703    0.0000 C   0  0  0  0  0  0  0  0  0  0  0  0
   13.9899   -1.7142    0.0000 C   0  0  0  0  0  0  0  0  0  0  0  0
   13.9987   -3.2167    0.0000 C   0  0  0  0  0  0  0  0  0  0  0  0
   15.4304   -3.6728    0.0000 C   0  0  0  0  0  0  0  0  0  0  0  0
   16.3067   -2.4519    0.0000 N   0  0  0  0  0  0  0  0  0  0  0  0
   15.4163   -1.2417    0.0000 C   0  0  0  0  0  0  0  0  0  0  0  0
   15.8713    0.1876    0.0000 O   0  0  0  0  0  0  0  0  0  0  0  0
   15.9023   -5.0966    0.0000 O   0  0  0  0  0  0  0  0  0  0  0  0
   17.8064   -2.4430    0.0000 N   0  0  0  0  0  0  0  0  0  0  0  0
   18.5641   -3.7376    0.0000 C   0  0  0  0  0  0  0  0  0  0  0  0
   20.0641   -3.7288    0.0000 C   0  0  0  0  0  0  0  0  0  0  0  0
   17.8219   -5.0410    0.0000 C   0  0  0  0  0  0  0  0  0  0  0  0
   20.8179   -5.0272    0.0000 C   0  0  0  0  0  0  0  0  0  0  0  0
   22.3164   -5.0192    0.0000 C   0  0  0  0  0  0  0  0  0  0  0  0
   23.0603   -3.7147    0.0000 C   0  0  0  0  0  0  0  0  0  0  0  0
   22.2946   -2.4159    0.0000 C   0  0  0  0  0  0  0  0  0  0  0  0
   20.7987   -2.4306    0.0000 C   0  0  0  0  0  0  0  0  0  0  0  0
   23.0758   -6.3167    0.0000 N   0  3  0  0  0  0  0  0  0  0  0  0
   24.5757   -6.3086    0.0000 O   0  0  0  0  0  0  0  0  0  0  0  0
   22.3329   -7.6197    0.0000 O   0  5  0  0  0  0  0  0  0  0  0  0
  1  2  2  0  0  0  0
  2  3  1  0  0  0  0
  3  6  2  0  0  0  0
  5  4  2  0  0  0  0
  4  1  1  0  0  0  0
  5  6  1  0  0  0  0
  6  7  1  0  0  0  0
  7  8  1  0  0  0  0
  8  9  1  0  0  0  0
  9  5  1  0  0  0  0
  9 10  2  0  0  0  0
  7 11  2  0  0  0  0
  8 12  1  0  0  0  0
 12 13  2  0  0  0  0
 13 14  1  0  0  0  0
 13 15  1  0  0  0  0
 14 16  2  0  0  0  0
 16 17  1  0  0  0  0
 17 18  2  0  0  0  0
 18 19  1  0  0  0  0
 19 20  2  0  0  0  0
 20 14  1  0  0  0  0
 21 22  2  0  0  0  0
 21 23  1  0  0  0  0
 17 21  1  0  0  0  0
M  CHG  2  21   1  23  -1
M  END
> <Value>
3.0

> <Relation>
<

> <SourceURI>
mol:CHEMBL2170103

$$$$

Generated by Molecular Materials Informatics

 15 15  0  0  0  0  0  0  0  0999 V2000
   23.3581  -26.8789    0.0000 C   0  0  0  0  0  0  0  0  0  0  0  0
   24.1081  -28.1777    0.0000 C   0  0  0  0  0  0  0  0  0  0  0  0
   23.3581  -29.4768    0.0000 C   0  0  0  0  0  0  0  0  0  0  0  0
   24.1081  -25.5798    0.0000 O   0  0  0  0  0  0  0  0  0  0  0  0
   21.8582  -26.8789    0.0000 N   0  0  0  0  0  0  0  0  0  0  0  0
   21.8582  -29.4768    0.0000 C   0  0  0  0  0  0  0  0  0  0  0  0
   21.1082  -30.7758    0.0000 C   0  0  0  0  0  0  0  0  0  0  0  0
   19.6082  -30.7758    0.0000 C   0  0  0  0  0  0  0  0  0  0  0  0
   18.8582  -29.4768    0.0000 C   0  0  0  0  0  0  0  0  0  0  0  0
   19.6082  -28.1777    0.0000 C   0  0  0  0  0  0  0  0  0  0  0  0
   21.1082  -28.1777    0.0000 C   0  0  0  0  0  0  0  0  0  0  0  0
   21.1082  -25.5798    0.0000 C   0  0  0  0  0  0  0  0  0  0  0  0
   19.6082  -25.5798    0.0000 C   0  0  0  0  0  0  0  0  0  0  0  0
   18.8582  -24.2808    0.0000 O   0  0  0  0  0  0  0  0  0  0  0  0
   25.6080  -28.1777    0.0000 N   0  0  0  0  0  0  0  0  0  0  0  0
  1  2  1  0  0  0  0
  2  3  1  0  0  0  0
  1  4  2  0  0  0  0
  1  5  1  0  0  0  0
  6  7  1  0  0  0  0
  7  8  2  0  0  0  0
  8  9  1  0  0  0  0
  9 10  2  0  0  0  0
 10 11  1  0  0  0  0
  6 11  2  0  0  0  0
  3  6  1  0  0  0  0
 12 13  1  0  0  0  0
 13 14  1  0  0  0  0
  5 12  1  0  0  0  0
  2 15  1  0  0  0  0
M  END
> <Value>
3.0

> <Relation>
<

> <SourceURI>
mol:CHEMBL2170101

$$$$

Generated by Molecular Materials Informatics

 14 14  0  0  0  0  0  0  0  0999 V2000
    3.9303   -5.3749    0.0000 C   0  0  0  0  0  0  0  0  0  0  0  0
    3.9281   -6.8790    0.0000 C   0  0  0  0  0  0  0  0  0  0  0  0
    5.2280   -7.6298    0.0000 C   0  0  0  0  0  0  0  0  0  0  0  0
    6.5305   -6.8783    0.0000 C   0  0  0  0  0  0  0  0  0  0  0  0
    6.5252   -5.3683    0.0000 C   0  0  0  0  0  0  0  0  0  0  0  0
    5.2247   -4.6243    0.0000 C   0  0  0  0  0  0  0  0  0  0  0  0
    5.2276   -9.1298    0.0000 O   0  0  0  0  0  0  0  0  0  0  0  0
    3.9283   -9.8794    0.0000 C   0  0  0  0  0  0  0  0  0  0  0  0
    5.2201   -3.1243    0.0000 C   0  0  0  0  0  0  0  0  0  0  0  0
    6.5169   -2.3705    0.0000 C   0  0  0  0  0  0  0  0  0  0  0  0
    6.5125   -0.8705    0.0000 N   0  0  0  0  0  0  0  0  0  0  0  0
    7.8183   -3.1167    0.0000 C   0  0  0  0  0  0  0  0  0  0  0  0
    9.1150   -2.3627    0.0000 C   0  0  0  0  0  0  0  0  0  0  0  0
    3.9189   -2.3783    0.0000 O   0  0  0  0  0  0  0  0  0  0  0  0
  1  2  2  0  0  0  0
  2  3  1  0  0  0  0
  3  4  2  0  0  0  0
  4  5  1  0  0  0  0
  5  6  2  0  0  0  0
  6  1  1  0  0  0  0
  3  7  1  0  0  0  0
  7  8  1  0  0  0  0
  6  9  1  0  0  0  0
  9 10  1  0  0  0  0
 10 11  1  1  0  0  0
 10 12  1  0  0  0  0
 12 13  1  0  0  0  0
  9 14  1  1  0  0  0
M  END
> <Value>
3.0

> <Relation>
<

> <SourceURI>
mol:CHEMBL2170115

$$$$

Generated by Molecular Materials Informatics

 20 21  0  0  0  0  0  0  0  0999 V2000
    0.2212    0.6393    0.0000 O   0  0  0  0  0  0  0  0  0  0  0  0
   -4.9750    0.6393    0.0000 O   0  0  0  0  0  0  0  0  0  0  0  0
   -2.3770    5.1393    0.0000 O   0  0  0  0  0  0  0  0  0  0  0  0
    2.8192   -5.3607    0.0000 O   0  0  0  0  0  0  0  0  0  0  0  0
    1.5201   -7.6106    0.0000 O   0  0  0  0  0  0  0  0  0  0  0  0
   -1.0779    2.8893    0.0000 N   0  0  0  0  0  0  0  0  0  0  0  0
   -3.6759    2.8893    0.0000 N   0  0  0  0  0  0  0  0  0  0  0  0
   -2.3770   -0.8607    0.0000 N   0  0  0  0  0  0  0  0  0  0  0  0
   -1.0779   -1.6107    0.0000 N   0  0  0  0  0  0  0  0  0  0  0  0
   -2.3770    0.6393    0.0000 C   0  0  0  0  0  0  0  0  0  0  0  0
   -1.0779    1.3893    0.0000 C   0  0  0  0  0  0  0  0  0  0  0  0
   -3.6759    1.3893    0.0000 C   0  0  0  0  0  0  0  0  0  0  0  0
   -2.3770    3.6393    0.0000 C   0  0  0  0  0  0  0  0  0  0  0  0
   -1.0779   -3.1107    0.0000 C   0  0  0  0  0  0  0  0  0  0  0  0
    0.2212   -5.3607    0.0000 C   0  0  0  0  0  0  0  0  0  0  0  0
    0.2212   -3.8607    0.0000 C   0  0  0  0  0  0  0  0  0  0  0  0
   -2.3770   -3.8607    0.0000 C   0  0  0  0  0  0  0  0  0  0  0  0
   -1.0779   -6.1107    0.0000 C   0  0  0  0  0  0  0  0  0  0  0  0
    1.5201   -6.1107    0.0000 C   0  0  0  0  0  0  0  0  0  0  0  0
   -2.3770   -5.3607    0.0000 C   0  0  0  0  0  0  0  0  0  0  0  0
  1 11  2  0  0  0  0
  2 12  2  0  0  0  0
  3 13  2  0  0  0  0
  4 19  2  0  0  0  0
  5 19  1  0  0  0  0
  6 11  1  0  0  0  0
  6 13  1  0  0  0  0
  7 12  1  0  0  0  0
  7 13  1  0  0  0  0
  8  9  1  0  0  0  0
  8 10  2  0  0  0  0
  9 14  1  0  0  0  0
 10 11  1  0  0  0  0
 10 12  1  0  0  0  0
 14 16  2  0  0  0  0
 14 17  1  0  0  0  0
 15 16  1  0  0  0  0
 15 18  2  0  0  0  0
 15 19  1  0  0  0  0
 17 20  2  0  0  0  0
 18 20  1  0  0  0  0
M  END
> <Value>
3.0

> <Relation>
<

> <SourceURI>
mol:CHEMBL1518403

$$$$

Generated by Molecular Materials Informatics

 19 19  0  0  0  0  0  0  0  0999 V2000
    4.8745   -6.5517    0.0000 C   0  0  0  0  0  0  0  0  0  0  0  0
    4.8723   -8.0558    0.0000 C   0  0  0  0  0  0  0  0  0  0  0  0
    6.1719   -8.8066    0.0000 C   0  0  0  0  0  0  0  0  0  0  0  0
    7.4745   -8.0549    0.0000 C   0  0  0  0  0  0  0  0  0  0  0  0
    7.4692   -6.5451    0.0000 C   0  0  0  0  0  0  0  0  0  0  0  0
    6.1686   -5.8011    0.0000 C   0  0  0  0  0  0  0  0  0  0  0  0
    8.7792   -8.8020    0.0000 N   0  3  0  0  0  0  0  0  0  0  0  0
   10.0770   -8.0500    0.0000 O   0  0  0  0  0  0  0  0  0  0  0  0
    8.7815  -10.3020    0.0000 O   0  5  0  0  0  0  0  0  0  0  0  0
    3.5752   -5.8018    0.0000 O   0  0  0  0  0  0  0  0  0  0  0  0
    6.1643   -4.3011    0.0000 N   0  0  0  0  0  0  0  0  0  0  0  0
    7.4608   -3.5473    0.0000 N   0  0  0  0  0  0  0  0  0  0  0  0
    7.4565   -2.0473    0.0000 C   0  0  0  0  0  0  0  0  0  0  0  0
    8.7532   -1.2935    0.0000 C   0  0  0  0  0  0  0  0  0  0  0  0
    6.1552   -1.3011    0.0000 C   0  0  0  0  0  0  0  0  0  0  0  0
   10.0544   -2.0397    0.0000 O   0  0  0  0  0  0  0  0  0  0  0  0
    8.7486    0.2065    0.0000 C   0  0  0  0  0  0  0  0  0  0  0  0
    6.1506    0.1989    0.0000 N   0  0  0  0  0  0  0  0  0  0  0  0
    4.8585   -2.0549    0.0000 O   0  0  0  0  0  0  0  0  0  0  0  0
  1  2  2  0  0  0  0
  2  3  1  0  0  0  0
  3  4  2  0  0  0  0
  4  5  1  0  0  0  0
  5  6  2  0  0  0  0
  6  1  1  0  0  0  0
  7  8  2  0  0  0  0
  7  9  1  0  0  0  0
  4  7  1  0  0  0  0
  1 10  1  0  0  0  0
  6 11  1  0  0  0  0
 11 12  1  0  0  0  0
 12 13  2  0  0  0  0
 13 14  1  0  0  0  0
 13 15  1  0  0  0  0
 14 16  2  0  0  0  0
 14 17  1  0  0  0  0
 15 18  1  0  0  0  0
 15 19  2  0  0  0  0
M  CHG  2   7   1   9  -1
M  END
> <Value>
3.0

> <Relation>
<

> <SourceURI>
mol:CHEMBL2170113

$$$$

Generated by Molecular Materials Informatics

 21 22  0  0  0  0  0  0  0  0999 V2000
   -1.9817    0.3916    0.0000 O   0  0  0  0  0  0  0  0  0  0  0  0
    3.2144    0.3916    0.0000 O   0  0  0  0  0  0  0  0  0  0  0  0
    0.6162    4.8917    0.0000 O   0  0  0  0  0  0  0  0  0  0  0  0
    1.9153   -3.3583    0.0000 O   0  0  0  0  0  0  0  0  0  0  0  0
   -3.2808   -7.8583    0.0000 O   0  5  0  0  0  0  0  0  0  0  0  0
   -4.5799   -5.6083    0.0000 O   0  0  0  0  0  0  0  0  0  0  0  0
    0.6162   -1.1083    0.0000 N   0  0  0  0  0  0  0  0  0  0  0  0
   -0.6827    2.6416    0.0000 N   0  0  0  0  0  0  0  0  0  0  0  0
    1.9153    2.6416    0.0000 N   0  0  0  0  0  0  0  0  0  0  0  0
   -0.6827   -1.8583    0.0000 N   0  0  0  0  0  0  0  0  0  0  0  0
   -3.2808   -6.3583    0.0000 N   0  3  0  0  0  0  0  0  0  0  0  0
    0.6162    0.3916    0.0000 C   0  0  0  0  0  0  0  0  0  0  0  0
   -0.6827    1.1416    0.0000 C   0  0  0  0  0  0  0  0  0  0  0  0
    1.9153    1.1416    0.0000 C   0  0  0  0  0  0  0  0  0  0  0  0
   -0.6827   -3.3583    0.0000 C   0  0  0  0  0  0  0  0  0  0  0  0
    0.6162    3.3916    0.0000 C   0  0  0  0  0  0  0  0  0  0  0  0
    0.6162   -4.1083    0.0000 C   0  0  0  0  0  0  0  0  0  0  0  0
   -1.9817   -5.6083    0.0000 C   0  0  0  0  0  0  0  0  0  0  0  0
   -1.9817   -4.1083    0.0000 C   0  0  0  0  0  0  0  0  0  0  0  0
    0.6162   -5.6083    0.0000 C   0  0  0  0  0  0  0  0  0  0  0  0
   -0.6827   -6.3583    0.0000 C   0  0  0  0  0  0  0  0  0  0  0  0
  1 13  2  0  0  0  0
  2 14  2  0  0  0  0
  3 16  2  0  0  0  0
  4 17  1  0  0  0  0
  5 11  1  0  0  0  0
  6 11  2  0  0  0  0
  7 10  1  0  0  0  0
  7 12  2  0  0  0  0
  8 13  1  0  0  0  0
  8 16  1  0  0  0  0
  9 14  1  0  0  0  0
  9 16  1  0  0  0  0
 10 15  1  0  0  0  0
 11 18  1  0  0  0  0
 12 13  1  0  0  0  0
 12 14  1  0  0  0  0
 15 17  1  0  0  0  0
 15 19  2  0  0  0  0
 17 20  2  0  0  0  0
 18 19  1  0  0  0  0
 18 21  2  0  0  0  0
 20 21  1  0  0  0  0
M  CHG  2   5  -1  11   1
M  END
> <Value>
3.0

> <Relation>
<

> <SourceURI>
mol:CHEMBL1347984

$$$$

Generated by Molecular Materials Informatics

 32 34  0  0  0  0  0  0  0  0999 V2000
    3.3817  -10.6355    0.0000 C   0  0  0  0  0  0  0  0  0  0  0  0
    3.3795  -12.1396    0.0000 C   0  0  0  0  0  0  0  0  0  0  0  0
    4.6791  -12.8904    0.0000 C   0  0  0  0  0  0  0  0  0  0  0  0
    5.9815  -12.1389    0.0000 C   0  0  0  0  0  0  0  0  0  0  0  0
    5.9764  -10.6288    0.0000 C   0  0  0  0  0  0  0  0  0  0  0  0
    4.6759   -9.8850    0.0000 C   0  0  0  0  0  0  0  0  0  0  0  0
    4.6824  -14.3987    0.0000 N   0  3  0  0  0  0  0  0  0  0  0  0
    5.9811  -15.1488    0.0000 O   0  0  0  0  0  0  0  0  0  0  0  0
    3.3834  -15.1483    0.0000 O   0  5  0  0  0  0  0  0  0  0  0  0
    2.0812   -9.8862    0.0000 N   0  3  0  0  0  0  0  0  0  0  0  0
    0.7825  -10.6366    0.0000 O   0  0  0  0  0  0  0  0  0  0  0  0
    2.0809   -8.3863    0.0000 O   0  5  0  0  0  0  0  0  0  0  0  0
    4.6713   -8.3852    0.0000 N   0  0  0  0  0  0  0  0  0  0  0  0
    5.9680   -7.6314    0.0000 N   0  0  0  0  0  0  0  0  0  0  0  0
    5.9635   -6.1314    0.0000 C   0  0  0  0  0  0  0  0  0  0  0  0
    7.2604   -5.3776    0.0000 C   0  0  0  0  0  0  0  0  0  0  0  0
    8.6354   -5.9904    0.0000 C   0  0  0  0  0  0  0  0  0  0  0  0
    9.6370   -4.8717    0.0000 C   0  0  0  0  0  0  0  0  0  0  0  0
    8.8801   -3.5744    0.0000 N   0  0  0  0  0  0  0  0  0  0  0  0
    7.4133   -3.8957    0.0000 C   0  0  0  0  0  0  0  0  0  0  0  0
   11.1292   -5.0231    0.0000 C   0  0  0  0  0  0  0  0  0  0  0  0
    6.2946   -2.8966    0.0000 C   0  0  0  0  0  0  0  0  0  0  0  0
    9.4788   -2.2043    0.0000 C   0  0  0  0  0  0  0  0  0  0  0  0
   10.9719   -2.0415    0.0000 C   0  0  0  0  0  0  0  0  0  0  0  0
   11.5746   -0.6698    0.0000 C   0  0  0  0  0  0  0  0  0  0  0  0
   10.6861    0.5406    0.0000 C   0  0  0  0  0  0  0  0  0  0  0  0
    9.1881    0.3702    0.0000 C   0  0  0  0  0  0  0  0  0  0  0  0
    8.5925   -1.0021    0.0000 C   0  0  0  0  0  0  0  0  0  0  0  0
   11.2870    1.9151    0.0000 S   0  0  0  0  0  0  0  0  0  0  0  0
   12.7775    2.0818    0.0000 N   0  0  0  0  0  0  0  0  0  0  0  0
    9.9823    2.6667    0.0000 O   0  0  0  0  0  0  0  0  0  0  0  0
   10.8913    3.3710    0.0000 O   0  0  0  0  0  0  0  0  0  0  0  0
  1  2  2  0  0  0  0
  2  3  1  0  0  0  0
  3  4  2  0  0  0  0
  4  5  1  0  0  0  0
  5  6  2  0  0  0  0
  6  1  1  0  0  0  0
  7  8  2  0  0  0  0
  7  9  1  0  0  0  0
  3  7  1  0  0  0  0
 10 11  2  0  0  0  0
 10 12  1  0  0  0  0
  1 10  1  0  0  0  0
  6 13  1  0  0  0  0
 13 14  1  0  0  0  0
 14 15  2  0  0  0  0
 15 16  1  0  0  0  0
 17 18  2  0  0  0  0
 16 17  1  0  0  0  0
 18 19  1  0  0  0  0
 19 20  1  0  0  0  0
 20 16  2  0  0  0  0
 18 21  1  0  0  0  0
 20 22  1  0  0  0  0
 23 24  2  0  0  0  0
 24 25  1  0  0  0  0
 25 26  2  0  0  0  0
 26 27  1  0  0  0  0
 27 28  2  0  0  0  0
 28 23  1  0  0  0  0
 19 23  1  0  0  0  0
 26 29  1  0  0  0  0
 29 30  1  0  0  0  0
 29 31  2  0  0  0  0
 29 32  2  0  0  0  0
M  CHG  4   7   1   9  -1  10   1  12  -1
M  END
> <Value>
3.0

> <Relation>
<

> <SourceURI>
mol:CHEMBL2170112

$$$$

Generated by Molecular Materials Informatics

 15 16  0  0  0  0  0  0  0  0999 V2000
    6.9330   -7.2842    0.0000 C   0  0  0  0  0  0  0  0  0  0  0  0
    7.3669   -8.7195    0.0000 N   0  0  0  0  0  0  0  0  0  0  0  0
    5.4328   -7.2842    0.0000 N   0  0  0  0  0  0  0  0  0  0  0  0
    6.1342   -9.5745    0.0000 C   0  0  0  0  0  0  0  0  0  0  0  0
    4.9427   -8.6669    0.0000 N   0  0  0  0  0  0  0  0  0  0  0  0
    7.8408   -6.0903    0.0000 C   0  0  0  0  0  0  0  0  0  0  0  0
    8.7821   -9.2145    0.0000 N   0  0  0  0  0  0  0  0  0  0  0  0
    6.1342  -11.0748    0.0000 S   0  0  0  0  0  0  0  0  0  0  0  0
    7.2618   -4.7088    0.0000 C   0  0  0  0  0  0  0  0  0  0  0  0
    9.3298   -6.2791    0.0000 O   0  0  0  0  0  0  0  0  0  0  0  0
    8.1696   -3.5161    0.0000 C   0  0  0  0  0  0  0  0  0  0  0  0
    5.7741   -4.5214    0.0000 C   0  0  0  0  0  0  0  0  0  0  0  0
    5.1928   -3.1373    0.0000 C   0  0  0  0  0  0  0  0  0  0  0  0
    7.5895   -2.1321    0.0000 C   0  0  0  0  0  0  0  0  0  0  0  0
    6.1005   -1.9420    0.0000 C   0  0  0  0  0  0  0  0  0  0  0  0
  2  1  1  0  0  0  0
  3  1  2  0  0  0  0
  4  2  1  0  0  0  0
  5  3  1  0  0  0  0
  6  1  1  0  0  0  0
  7  2  1  0  0  0  0
  8  4  1  0  0  0  0
  9  6  1  0  0  0  0
 10  6  1  0  0  0  0
 11  9  2  0  0  0  0
 12  9  1  0  0  0  0
 13 12  2  0  0  0  0
 14 11  1  0  0  0  0
 15 13  1  0  0  0  0
  5  4  2  0  0  0  0
 15 14  2  0  0  0  0
M  END
> <Value>
3.0

> <Relation>
<

> <SourceURI>
mol:CHEMBL2170111

$$$$

Generated by Molecular Materials Informatics

 30 33  0  0  0  0  0  0  0  0999 V2000
    4.5990   -3.6552    0.0000 N   0  0  0  0  0  0  0  0  0  0  0  0
    3.3748   -4.5401    0.0000 C   0  0  0  0  0  0  0  0  0  0  0  0
    3.8413   -5.9732    0.0000 C   0  0  0  0  0  0  0  0  0  0  0  0
    5.3490   -5.9732    0.0000 C   0  0  0  0  0  0  0  0  0  0  0  0
    5.8157   -4.5401    0.0000 C   0  0  0  0  0  0  0  0  0  0  0  0
    4.6033   -2.1594    0.0000 C   0  0  0  0  0  0  0  0  0  0  0  0
    5.9064   -1.4125    0.0000 C   0  0  0  0  0  0  0  0  0  0  0  0
    5.9092    0.0859    0.0000 C   0  0  0  0  0  0  0  0  0  0  0  0
    4.6104    0.8392    0.0000 C   0  0  0  0  0  0  0  0  0  0  0  0
    3.3059    0.0832    0.0000 C   0  0  0  0  0  0  0  0  0  0  0  0
    3.3097   -1.4128    0.0000 C   0  0  0  0  0  0  0  0  0  0  0  0
    4.6106    2.3392    0.0000 S   0  0  0  0  0  0  0  0  0  0  0  0
    5.9095    3.0892    0.0000 N   0  0  0  0  0  0  0  0  0  0  0  0
    3.1521    1.9579    0.0000 O   0  0  0  0  0  0  0  0  0  0  0  0
    3.8490    3.6472    0.0000 O   0  0  0  0  0  0  0  0  0  0  0  0
    7.2426   -4.0775    0.0000 C   0  0  0  0  0  0  0  0  0  0  0  0
    8.3564   -5.0817    0.0000 C   0  0  0  0  0  0  0  0  0  0  0  0
    8.2015   -6.5732    0.0000 C   0  0  0  0  0  0  0  0  0  0  0  0
    9.5713   -7.1841    0.0000 N   0  0  0  0  0  0  0  0  0  0  0  0
   10.5757   -6.0699    0.0000 N   0  0  0  0  0  0  0  0  0  0  0  0
    9.8264   -4.7708    0.0000 C   0  0  0  0  0  0  0  0  0  0  0  0
    6.9028   -7.3235    0.0000 O   0  0  0  0  0  0  0  0  0  0  0  0
   10.4375   -3.4012    0.0000 O   0  0  0  0  0  0  0  0  0  0  0  0
    9.8815   -8.6441    0.0000 C   0  0  0  0  0  0  0  0  0  0  0  0
    8.7630   -9.6466    0.0000 C   0  0  0  0  0  0  0  0  0  0  0  0
    9.0732  -11.1126    0.0000 C   0  0  0  0  0  0  0  0  0  0  0  0
   10.5006  -11.5783    0.0000 C   0  0  0  0  0  0  0  0  0  0  0  0
   11.6184  -10.5666    0.0000 C   0  0  0  0  0  0  0  0  0  0  0  0
   11.3026   -9.1043    0.0000 C   0  0  0  0  0  0  0  0  0  0  0  0
   10.8135  -13.0452    0.0000 Cl  0  0  0  0  0  0  0  0  0  0  0  0
  2  3  2  0  0  0  0
  1  2  1  0  0  0  0
  3  4  1  0  0  0  0
  4  5  2  0  0  0  0
  5  1  1  0  0  0  0
  6  7  2  0  0  0  0
  7  8  1  0  0  0  0
  8  9  2  0  0  0  0
  9 10  1  0  0  0  0
 10 11  2  0  0  0  0
 11  6  1  0  0  0  0
  1  6  1  0  0  0  0
  9 12  1  0  0  0  0
 12 13  1  0  0  0  0
 12 14  2  0  0  0  0
 12 15  2  0  0  0  0
  5 16  1  0  0  0  0
 16 17  2  0  0  0  0
 17 18  1  0  0  0  0
 18 19  1  0  0  0  0
 19 20  1  0  0  0  0
 20 21  1  0  0  0  0
 21 17  1  0  0  0  0
 18 22  2  0  0  0  0
 21 23  2  0  0  0  0
 24 25  2  0  0  0  0
 25 26  1  0  0  0  0
 26 27  2  0  0  0  0
 27 28  1  0  0  0  0
 28 29  2  0  0  0  0
 29 24  1  0  0  0  0
 19 24  1  0  0  0  0
 27 30  1  0  0  0  0
M  END
> <Value>
3.0

> <Relation>
<

> <SourceURI>
mol:CHEMBL2170109

$$$$

Generated by Molecular Materials Informatics

 24 26  0  0  0  0  0  0  0  0999 V2000
    2.6452   -5.7903    0.0000 S   0  0  0  0  0  0  0  0  0  0  0  0
    0.2510   -0.1983    0.0000 S   0  0  0  0  0  0  0  0  0  0  0  0
    1.3461   -6.5403    0.0000 O   0  0  0  0  0  0  0  0  0  0  0  0
    3.2554   -7.1607    0.0000 O   0  0  0  0  0  0  0  0  0  0  0  0
    1.6776    0.2653    0.0000 O   0  0  0  0  0  0  0  0  0  0  0  0
   -1.1757   -0.6618    0.0000 O   0  0  0  0  0  0  0  0  0  0  0  0
    1.7636   -4.5768    0.0000 N   0  0  0  0  0  0  0  0  0  0  0  0
    2.1817   -1.9367    0.0000 N   0  0  0  0  0  0  0  0  0  0  0  0
    0.7145   -1.6248    0.0000 N   0  0  0  0  0  0  0  0  0  0  0  0
    4.0717   -5.3268    0.0000 C   0  0  0  0  0  0  0  0  0  0  0  0
    4.0717   -3.8268    0.0000 C   0  0  0  0  0  0  0  0  0  0  0  0
    2.6452   -3.3634    0.0000 C   0  0  0  0  0  0  0  0  0  0  0  0
   -0.2126    1.2282    0.0000 C   0  0  0  0  0  0  0  0  0  0  0  0
    5.3708   -6.0768    0.0000 C   0  0  0  0  0  0  0  0  0  0  0  0
    5.3708   -3.0768    0.0000 C   0  0  0  0  0  0  0  0  0  0  0  0
   -1.6797    1.5402    0.0000 C   0  0  0  0  0  0  0  0  0  0  0  0
    6.6699   -5.3268    0.0000 C   0  0  0  0  0  0  0  0  0  0  0  0
    6.6699   -3.8268    0.0000 C   0  0  0  0  0  0  0  0  0  0  0  0
    0.7912    2.3430    0.0000 C   0  0  0  0  0  0  0  0  0  0  0  0
   -2.1433    2.9668    0.0000 C   0  0  0  0  0  0  0  0  0  0  0  0
   -1.1395    4.0815    0.0000 C   0  0  0  0  0  0  0  0  0  0  0  0
    0.3276    3.7695    0.0000 C   0  0  0  0  0  0  0  0  0  0  0  0
   -2.6835    0.4255    0.0000 C   0  0  0  0  0  0  0  0  0  0  0  0
   -1.6032    5.5081    0.0000 C   0  0  0  0  0  0  0  0  0  0  0  0
  1  3  2  0  0  0  0
  1  4  2  0  0  0  0
  1  7  1  0  0  0  0
  1 10  1  0  0  0  0
  2  5  2  0  0  0  0
  2  6  2  0  0  0  0
  2  9  1  0  0  0  0
  2 13  1  0  0  0  0
  7 12  2  0  0  0  0
  8  9  1  0  0  0  0
  8 12  1  0  0  0  0
 10 11  1  0  0  0  0
 10 14  2  0  0  0  0
 11 12  1  0  0  0  0
 11 15  2  0  0  0  0
 13 16  1  0  0  0  0
 13 19  2  0  0  0  0
 14 17  1  0  0  0  0
 15 18  1  0  0  0  0
 16 20  2  0  0  0  0
 16 23  1  0  0  0  0
 17 18  2  0  0  0  0
 19 22  1  0  0  0  0
 20 21  1  0  0  0  0
 21 22  2  0  0  0  0
 21 24  1  0  0  0  0
M  END
> <Value>
3.0822319975522436

> <Relation>
=

> <SourceURI>
mol:CHEMBL1505807

$$$$

Generated by Molecular Materials Informatics

 25 26  0  0  0  0  0  0  0  0999 V2000
    6.2767   -4.5288    0.0000 C   0  0  0  0  0  0  0  0  0  0  0  0
    6.2747   -6.0330    0.0000 C   0  0  0  0  0  0  0  0  0  0  0  0
    7.5742   -6.7837    0.0000 C   0  0  0  0  0  0  0  0  0  0  0  0
    8.8769   -6.0323    0.0000 C   0  0  0  0  0  0  0  0  0  0  0  0
    8.8716   -4.5222    0.0000 C   0  0  0  0  0  0  0  0  0  0  0  0
    7.5709   -3.7782    0.0000 C   0  0  0  0  0  0  0  0  0  0  0  0
    4.9762   -3.7795    0.0000 N   0  3  0  0  0  0  0  0  0  0  0  0
    3.6774   -4.5299    0.0000 O   0  0  0  0  0  0  0  0  0  0  0  0
    4.9758   -2.2795    0.0000 O   0  5  0  0  0  0  0  0  0  0  0  0
   10.1770   -6.7801    0.0000 C   0  0  0  0  0  0  0  0  0  0  0  0
   10.1794   -8.2801    0.0000 C   0  0  0  0  0  0  0  0  0  0  0  0
   11.4797   -9.0280    0.0000 C   0  0  0  0  0  0  0  0  0  0  0  0
    8.8815   -9.0321    0.0000 N   0  0  0  0  0  0  0  0  0  0  0  0
   12.7774   -8.2760    0.0000 N   0  0  0  0  0  0  0  0  0  0  0  0
   11.4819  -10.5280    0.0000 O   0  0  0  0  0  0  0  0  0  0  0  0
    8.8839  -10.5321    0.0000 C   0  0  0  0  0  0  0  0  0  0  0  0
    7.5862  -11.2841    0.0000 C   0  0  0  0  0  0  0  0  0  0  0  0
   10.1842  -11.2801    0.0000 O   0  0  0  0  0  0  0  0  0  0  0  0
    6.2932  -10.5302    0.0000 C   0  0  0  0  0  0  0  0  0  0  0  0
    4.9962  -11.2810    0.0000 C   0  0  0  0  0  0  0  0  0  0  0  0
    4.9979  -12.7826    0.0000 C   0  0  0  0  0  0  0  0  0  0  0  0
    6.3072  -13.5302    0.0000 C   0  0  0  0  0  0  0  0  0  0  0  0
    7.5988  -12.7753    0.0000 C   0  0  0  0  0  0  0  0  0  0  0  0
    3.7011  -13.5365    0.0000 Br  0  0  0  0  0  0  0  0  0  0  0  0
   14.0777   -9.0240    0.0000 N   0  0  0  0  0  0  0  0  0  0  0  0
  1  2  2  0  0  0  0
  2  3  1  0  0  0  0
  3  4  2  0  0  0  0
  4  5  1  0  0  0  0
  5  6  2  0  0  0  0
  6  1  1  0  0  0  0
  7  8  2  0  0  0  0
  7  9  1  0  0  0  0
  1  7  1  0  0  0  0
  4 10  1  0  0  0  0
 10 11  2  0  0  0  0
 11 12  1  0  0  0  0
 11 13  1  0  0  0  0
 12 14  1  0  0  0  0
 12 15  2  0  0  0  0
 13 16  1  0  0  0  0
 16 17  1  0  0  0  0
 16 18  2  0  0  0  0
 17 19  2  0  0  0  0
 19 20  1  0  0  0  0
 20 21  2  0  0  0  0
 21 22  1  0  0  0  0
 22 23  2  0  0  0  0
 23 17  1  0  0  0  0
 21 24  1  0  0  0  0
 14 25  1  0  0  0  0
M  CHG  2   7   1   9  -1
M  END
> <Value>
3.3583276267753135

> <Relation>
=

> <SourceURI>
mol:CHEMBL2170105

$$$$

Generated by Molecular Materials Informatics

 15 16  0  0  0  0  0  0  0  0999 V2000
    8.6098   -5.9955    0.0000 C   0  0  0  0  0  0  0  0  0  0  0  0
    9.7139   -7.0021    0.0000 N   0  0  0  0  0  0  0  0  0  0  0  0
    7.1485   -6.2877    0.0000 C   0  0  0  0  0  0  0  0  0  0  0  0
    9.2309   -4.6477    0.0000 N   0  0  0  0  0  0  0  0  0  0  0  0
   11.0332   -6.2755    0.0000 C   0  0  0  0  0  0  0  0  0  0  0  0
    9.7139   -8.5122    0.0000 N   0  0  0  0  0  0  0  0  0  0  0  0
    6.6735   -7.7003    0.0000 O   0  0  0  0  0  0  0  0  0  0  0  0
   10.7247   -4.7858    0.0000 N   0  0  0  0  0  0  0  0  0  0  0  0
   12.3484   -7.0021    0.0000 S   0  0  0  0  0  0  0  0  0  0  0  0
    5.1920   -7.9925    0.0000 C   0  0  0  0  0  0  0  0  0  0  0  0
    4.1650   -6.8559    0.0000 C   0  0  0  0  0  0  0  0  0  0  0  0
    4.7089   -9.3969    0.0000 C   0  0  0  0  0  0  0  0  0  0  0  0
    2.6955   -7.1483    0.0000 C   0  0  0  0  0  0  0  0  0  0  0  0
    3.2353   -9.6770    0.0000 C   0  0  0  0  0  0  0  0  0  0  0  0
    2.2287   -8.5811    0.0000 C   0  0  0  0  0  0  0  0  0  0  0  0
  1  2  1  0  0  0  0
  1  3  1  0  0  0  0
  1  4  2  0  0  0  0
  2  5  1  0  0  0  0
  2  6  1  0  0  0  0
  3  7  1  0  0  0  0
  4  8  1  0  0  0  0
  5  9  1  0  0  0  0
  7 10  1  0  0  0  0
 10 11  2  0  0  0  0
 10 12  1  0  0  0  0
 11 13  1  0  0  0  0
 12 14  2  0  0  0  0
 13 15  2  0  0  0  0
  5  8  2  0  0  0  0
 14 15  1  0  0  0  0
M  END
> <Value>
3.3730440485645525

> <Relation>
=

> <SourceURI>
mol:CHEMBL2170100

$$$$

Generated by Molecular Materials Informatics

 20 21  0  0  0  0  0  0  0  0999 V2000
    6.8503   -6.1927    0.0000 C   0  0  0  0  0  0  0  0  0  0  0  0
    6.8479   -7.6968    0.0000 C   0  0  0  0  0  0  0  0  0  0  0  0
    8.1477   -8.4475    0.0000 C   0  0  0  0  0  0  0  0  0  0  0  0
    9.4502   -7.6959    0.0000 C   0  0  0  0  0  0  0  0  0  0  0  0
    9.4449   -6.1861    0.0000 C   0  0  0  0  0  0  0  0  0  0  0  0
    8.1442   -5.4422    0.0000 C   0  0  0  0  0  0  0  0  0  0  0  0
   10.7411   -5.4313    0.0000 C   0  0  0  0  0  0  0  0  0  0  0  0
   12.0427   -6.1761    0.0000 F   0  0  0  0  0  0  0  0  0  0  0  0
   10.7353   -3.9313    0.0000 F   0  0  0  0  0  0  0  0  0  0  0  0
   12.0340   -4.6701    0.0000 F   0  0  0  0  0  0  0  0  0  0  0  0
    5.5512   -5.4429    0.0000 N   0  0  0  0  0  0  0  0  0  0  0  0
    5.3857   -3.9526    0.0000 N   0  0  0  0  0  0  0  0  0  0  0  0
    3.9170   -3.6404    0.0000 N   0  0  0  0  0  0  0  0  0  0  0  0
    3.1684   -4.9427    0.0000 C   0  0  0  0  0  0  0  0  0  0  0  0
    4.1772   -6.0550    0.0000 C   0  0  0  0  0  0  0  0  0  0  0  0
    3.8679   -7.5226    0.0000 N   0  0  0  0  0  0  0  0  0  0  0  0
    1.6771   -5.1035    0.0000 C   0  0  0  0  0  0  0  0  0  0  0  0
    0.7923   -3.8922    0.0000 N   0  0  0  0  0  0  0  0  0  0  0  0
    1.0709   -6.4752    0.0000 O   0  0  0  0  0  0  0  0  0  0  0  0
    1.3987   -2.5204    0.0000 N   0  0  0  0  0  0  0  0  0  0  0  0
  1  2  2  0  0  0  0
  2  3  1  0  0  0  0
  3  4  2  0  0  0  0
  4  5  1  0  0  0  0
  5  6  2  0  0  0  0
  6  1  1  0  0  0  0
  5  7  1  0  0  0  0
  7  8  1  0  0  0  0
  7  9  1  0  0  0  0
  7 10  1  0  0  0  0
  1 11  1  0  0  0  0
 12 13  2  0  0  0  0
 11 12  1  0  0  0  0
 13 14  1  0  0  0  0
 14 15  2  0  0  0  0
 15 11  1  0  0  0  0
 15 16  1  0  0  0  0
 14 17  1  0  0  0  0
 17 18  1  0  0  0  0
 17 19  2  0  0  0  0
 18 20  1  0  0  0  0
M  END
> <Value>
3.4910664739499673

> <Relation>
=

> <SourceURI>
mol:CHEMBL2170102

$$$$

Generated by Molecular Materials Informatics

 19 19  0  0  0  0  0  0  0  0999 V2000
    0.7487   -6.1640    0.0000 C   0  0  0  0  0  0  0  0  0  0  0  0
    0.7465   -7.6682    0.0000 C   0  0  0  0  0  0  0  0  0  0  0  0
    2.0463   -8.4189    0.0000 C   0  0  0  0  0  0  0  0  0  0  0  0
    3.3486   -7.6674    0.0000 C   0  0  0  0  0  0  0  0  0  0  0  0
    3.3435   -6.1575    0.0000 C   0  0  0  0  0  0  0  0  0  0  0  0
    2.0430   -5.4135    0.0000 C   0  0  0  0  0  0  0  0  0  0  0  0
   -0.5529   -8.4172    0.0000 C   0  0  0  0  0  0  0  0  0  0  0  0
    4.6398   -5.4026    0.0000 S   0  0  0  0  0  0  0  0  0  0  0  0
    5.9414   -6.1477    0.0000 N   0  0  0  0  0  0  0  0  0  0  0  0
    7.2377   -5.3928    0.0000 N   0  0  0  0  0  0  0  0  0  0  0  0
    8.5393   -6.1379    0.0000 C   0  0  0  0  0  0  0  0  0  0  0  0
    3.8798   -4.0961    0.0000 O   0  0  0  0  0  0  0  0  0  0  0  0
    5.0238   -3.9447    0.0000 O   0  0  0  0  0  0  0  0  0  0  0  0
    9.8356   -5.3832    0.0000 C   0  0  0  0  0  0  0  0  0  0  0  0
   11.1372   -6.1281    0.0000 O   0  0  0  0  0  0  0  0  0  0  0  0
   12.4335   -5.3732    0.0000 C   0  0  0  0  0  0  0  0  0  0  0  0
    9.8298   -3.8832    0.0000 O   0  0  0  0  0  0  0  0  0  0  0  0
    8.5451   -7.6378    0.0000 N   0  0  0  0  0  0  0  0  0  0  0  0
   13.7353   -6.1184    0.0000 C   0  0  0  0  0  0  0  0  0  0  0  0
  1  2  2  0  0  0  0
  2  3  1  0  0  0  0
  3  4  2  0  0  0  0
  4  5  1  0  0  0  0
  5  6  2  0  0  0  0
  6  1  1  0  0  0  0
  2  7  1  0  0  0  0
  5  8  1  0  0  0  0
  8  9  1  0  0  0  0
  9 10  1  0  0  0  0
 10 11  2  0  0  0  0
  8 12  2  0  0  0  0
  8 13  2  0  0  0  0
 11 14  1  0  0  0  0
 14 15  1  0  0  0  0
 15 16  1  0  0  0  0
 14 17  2  0  0  0  0
 11 18  1  0  0  0  0
 16 19  1  0  0  0  0
M  END
> <Value>
3.4941719661451636

> <Relation>
=

> <SourceURI>
mol:CHEMBL2170110

$$$$

Generated by Molecular Materials Informatics

 19 19  0  0  0  0  0  0  0  0999 V2000
   -6.0217   -4.3334    0.0000 Br  0  0  0  0  0  0  0  0  0  0  0  0
    5.6694   -3.5835    0.0000 S   0  0  0  0  0  0  0  0  0  0  0  0
   -0.8257   -1.3335    0.0000 O   0  0  0  0  0  0  0  0  0  0  0  0
    1.7723    0.1664    0.0000 O   0  0  0  0  0  0  0  0  0  0  0  0
    9.5664   -1.3335    0.0000 O   0  0  0  0  0  0  0  0  0  0  0  0
    3.0713   -2.0835    0.0000 N   0  0  0  0  0  0  0  0  0  0  0  0
    4.3704   -1.3335    0.0000 N   0  0  0  0  0  0  0  0  0  0  0  0
    6.9683   -1.3335    0.0000 N   0  0  0  0  0  0  0  0  0  0  0  0
   -2.1247   -2.0835    0.0000 C   0  0  0  0  0  0  0  0  0  0  0  0
    1.7723   -1.3335    0.0000 C   0  0  0  0  0  0  0  0  0  0  0  0
   -2.1247   -3.5835    0.0000 C   0  0  0  0  0  0  0  0  0  0  0  0
   -3.4236   -1.3335    0.0000 C   0  0  0  0  0  0  0  0  0  0  0  0
   -4.7226   -3.5835    0.0000 C   0  0  0  0  0  0  0  0  0  0  0  0
    5.6694   -2.0835    0.0000 C   0  0  0  0  0  0  0  0  0  0  0  0
    0.4734   -2.0835    0.0000 C   0  0  0  0  0  0  0  0  0  0  0  0
   -3.4236   -4.3334    0.0000 C   0  0  0  0  0  0  0  0  0  0  0  0
   -4.7226   -2.0835    0.0000 C   0  0  0  0  0  0  0  0  0  0  0  0
    8.2673   -2.0835    0.0000 C   0  0  0  0  0  0  0  0  0  0  0  0
    8.2673   -3.5835    0.0000 C   0  0  0  0  0  0  0  0  0  0  0  0
  1 13  1  0  0  0  0
  2 14  2  0  0  0  0
  3  9  1  0  0  0  0
  3 15  1  0  0  0  0
  4 10  2  0  0  0  0
  5 18  2  0  0  0  0
  6  7  1  0  0  0  0
  6 10  1  0  0  0  0
  7 14  1  0  0  0  0
  8 14  1  0  0  0  0
  8 18  1  0  0  0  0
  9 11  2  0  0  0  0
  9 12  1  0  0  0  0
 10 15  1  0  0  0  0
 11 16  1  0  0  0  0
 12 17  2  0  0  0  0
 13 16  2  0  0  0  0
 13 17  1  0  0  0  0
 18 19  1  0  0  0  0
M  END
> <Value>
3.644356949779131

> <Relation>
=

> <SourceURI>
mol:CHEMBL1319666

$$$$

Generated by Molecular Materials Informatics

 23 25  0  0  0  0  0  0  0  0999 V2000
   11.4762   -6.0204    0.0000 C   0  0  0  0  0  0  0  0  0  0  0  0
   10.0501   -6.4856    0.0000 N   0  0  0  0  0  0  0  0  0  0  0  0
   11.4762   -4.5246    0.0000 C   0  0  0  0  0  0  0  0  0  0  0  0
   12.7755   -6.7700    0.0000 N   0  0  0  0  0  0  0  0  0  0  0  0
    9.5701   -7.9232    0.0000 S   0  0  0  0  0  0  0  0  0  0  0  0
    9.1553   -5.2621    0.0000 C   0  0  0  0  0  0  0  0  0  0  0  0
   10.0501   -4.0444    0.0000 N   0  0  0  0  0  0  0  0  0  0  0  0
   12.7755   -3.7750    0.0000 C   0  0  0  0  0  0  0  0  0  0  0  0
   14.0566   -6.0204    0.0000 C   0  0  0  0  0  0  0  0  0  0  0  0
   10.8549   -8.6873    0.0000 C   0  0  0  0  0  0  0  0  0  0  0  0
    9.0949   -9.3468    0.0000 O   0  0  0  0  0  0  0  0  0  0  0  0
    8.1398   -7.4458    0.0000 O   0  0  0  0  0  0  0  0  0  0  0  0
   14.0566   -4.5246    0.0000 N   0  0  0  0  0  0  0  0  0  0  0  0
   12.7755   -2.2789    0.0000 O   0  0  0  0  0  0  0  0  0  0  0  0
   15.3601   -6.7700    0.0000 N   0  0  0  0  0  0  0  0  0  0  0  0
   10.8311  -10.1919    0.0000 C   0  0  0  0  0  0  0  0  0  0  0  0
   12.1462   -7.9516    0.0000 C   0  0  0  0  0  0  0  0  0  0  0  0
   12.1275  -10.9316    0.0000 C   0  0  0  0  0  0  0  0  0  0  0  0
   13.4304   -8.6928    0.0000 C   0  0  0  0  0  0  0  0  0  0  0  0
   13.4282  -10.1861    0.0000 C   0  0  0  0  0  0  0  0  0  0  0  0
   12.1258  -12.4335    0.0000 C   0  0  0  0  0  0  0  0  0  0  0  0
   13.4601  -13.1196    0.0000 O   0  0  0  0  0  0  0  0  0  0  0  0
   10.8608  -13.2443    0.0000 O   0  0  0  0  0  0  0  0  0  0  0  0
  1  2  1  0  0  0  0
  1  3  2  0  0  0  0
  1  4  1  0  0  0  0
  2  5  1  0  0  0  0
  2  6  1  0  0  0  0
  3  7  1  0  0  0  0
  3  8  1  0  0  0  0
  4  9  2  0  0  0  0
  5 10  1  0  0  0  0
  5 11  2  0  0  0  0
  5 12  2  0  0  0  0
  8 13  1  0  0  0  0
  8 14  2  0  0  0  0
  9 15  1  0  0  0  0
 10 16  2  0  0  0  0
 10 17  1  0  0  0  0
 16 18  1  0  0  0  0
 17 19  2  0  0  0  0
 18 20  2  0  0  0  0
 18 21  1  0  0  0  0
 21 22  1  0  0  0  0
 21 23  2  0  0  0  0
  6  7  2  0  0  0  0
  9 13  1  0  0  0  0
 19 20  1  0  0  0  0
M  END
> <Value>
3.6942188487450176

> <Relation>
=

> <SourceURI>
mol:CHEMBL2170107

$$$$

Generated by Molecular Materials Informatics

 32 35  0  0  0  0  0  0  0  0999 V2000
    2.9344   -0.2481    0.0000 C   0  0  0  0  0  0  0  0  0  0  0  0
    2.9323   -1.7522    0.0000 C   0  0  0  0  0  0  0  0  0  0  0  0
    4.2321   -2.5031    0.0000 C   0  0  0  0  0  0  0  0  0  0  0  0
    5.5346   -1.7513    0.0000 C   0  0  0  0  0  0  0  0  0  0  0  0
    5.5294   -0.2413    0.0000 C   0  0  0  0  0  0  0  0  0  0  0  0
    4.2286    0.5027    0.0000 C   0  0  0  0  0  0  0  0  0  0  0  0
    6.8350   -2.4993    0.0000 O   0  0  0  0  0  0  0  0  0  0  0  0
    6.8374   -3.9995    0.0000 C   0  0  0  0  0  0  0  0  0  0  0  0
    8.1375   -4.7475    0.0000 C   0  0  0  0  0  0  0  0  0  0  0  0
    8.1324   -6.2419    0.0000 N   0  0  0  0  0  0  0  0  0  0  0  0
    9.4254   -6.9897    0.0000 C   0  0  0  0  0  0  0  0  0  0  0  0
    9.4279   -3.9861    0.0000 N   0  0  0  0  0  0  0  0  0  0  0  0
   10.7290   -4.7422    0.0000 C   0  0  0  0  0  0  0  0  0  0  0  0
   10.7206   -6.2373    0.0000 C   0  0  0  0  0  0  0  0  0  0  0  0
   12.0092   -6.9890    0.0000 C   0  0  0  0  0  0  0  0  0  0  0  0
   13.3072   -6.2475    0.0000 C   0  0  0  0  0  0  0  0  0  0  0  0
   13.3083   -4.7466    0.0000 C   0  0  0  0  0  0  0  0  0  0  0  0
   12.0186   -4.0017    0.0000 C   0  0  0  0  0  0  0  0  0  0  0  0
    6.8319   -6.9892    0.0000 N   0  0  0  0  0  0  0  0  0  0  0  0
    5.5344   -6.2364    0.0000 C   0  0  0  0  0  0  0  0  0  0  0  0
    4.2339   -6.9839    0.0000 C   0  0  0  0  0  0  0  0  0  0  0  0
    2.9383   -6.2248    0.0000 C   0  0  0  0  0  0  0  0  0  0  0  0
    1.6384   -6.9710    0.0000 C   0  0  0  0  0  0  0  0  0  0  0  0
    1.6346   -8.4726    0.0000 C   0  0  0  0  0  0  0  0  0  0  0  0
    2.9412   -9.2250    0.0000 C   0  0  0  0  0  0  0  0  0  0  0  0
    4.2357   -8.4746    0.0000 C   0  0  0  0  0  0  0  0  0  0  0  0
    0.3350   -9.2217    0.0000 O   0  0  0  0  0  0  0  0  0  0  0  0
    0.3339  -10.7217    0.0000 C   0  0  0  0  0  0  0  0  0  0  0  0
   -0.9657  -11.4708    0.0000 C   0  0  0  0  0  0  0  0  0  0  0  0
   -0.9670  -12.9710    0.0000 O   0  0  0  0  0  0  0  0  0  0  0  0
   -2.2645  -10.7199    0.0000 O   0  0  0  0  0  0  0  0  0  0  0  0
    9.4266   -8.4897    0.0000 O   0  0  0  0  0  0  0  0  0  0  0  0
  1  2  2  0  0  0  0
  2  3  1  0  0  0  0
  3  4  2  0  0  0  0
  4  5  1  0  0  0  0
  5  6  2  0  0  0  0
  6  1  1  0  0  0  0
  4  7  1  0  0  0  0
  7  8  1  0  0  0  0
  8  9  1  0  0  0  0
  9 10  1  0  0  0  0
  9 12  2  0  0  0  0
 10 11  1  0  0  0  0
 11 14  1  0  0  0  0
 13 12  1  0  0  0  0
 13 14  2  0  0  0  0
 14 15  1  0  0  0  0
 15 16  2  0  0  0  0
 16 17  1  0  0  0  0
 17 18  2  0  0  0  0
 18 13  1  0  0  0  0
 10 19  1  0  0  0  0
 19 20  2  0  0  0  0
 20 21  1  0  0  0  0
 21 22  2  0  0  0  0
 22 23  1  0  0  0  0
 23 24  2  0  0  0  0
 24 25  1  0  0  0  0
 25 26  2  0  0  0  0
 26 21  1  0  0  0  0
 24 27  1  0  0  0  0
 27 28  1  0  0  0  0
 28 29  1  0  0  0  0
 29 30  1  0  0  0  0
 29 31  2  0  0  0  0
 11 32  2  0  0  0  0
M  END
> <Value>
3.7265357273786535

> <Relation>
=

> <SourceURI>
mol:CHEMBL2170108

$$$$

Generated by Molecular Materials Informatics

 27 30  0  0  0  0  0  0  0  0999 V2000
   -1.2881   -0.7457    0.0000 S   0  0  0  0  0  0  0  0  0  0  0  0
   -2.5016   -3.1273    0.0000 S   0  0  0  0  0  0  0  0  0  0  0  0
    2.5202   -1.4957    0.0000 O   0  0  0  0  0  0  0  0  0  0  0  0
   -1.7796    2.3579    0.0000 O   0  0  0  0  0  0  0  0  0  0  0  0
   -1.8689   -4.9386    0.0000 O   0  0  0  0  0  0  0  0  0  0  0  0
    3.4599   -8.7273    0.0000 O   0  0  0  0  0  0  0  0  0  0  0  0
    0.1386   -2.7092    0.0000 N   0  0  0  0  0  0  0  0  0  0  0  0
    0.6021    3.5714    0.0000 N   0  0  0  0  0  0  0  0  0  0  0  0
    0.6021   -4.1359    0.0000 N   0  0  0  0  0  0  0  0  0  0  0  0
    0.6021    1.1445    0.0000 C   0  0  0  0  0  0  0  0  0  0  0  0
    0.1386   -0.2822    0.0000 C   0  0  0  0  0  0  0  0  0  0  0  0
    2.0286    1.6079    0.0000 C   0  0  0  0  0  0  0  0  0  0  0  0
    1.0202   -1.4957    0.0000 C   0  0  0  0  0  0  0  0  0  0  0  0
   -0.2796    2.3579    0.0000 C   0  0  0  0  0  0  0  0  0  0  0  0
    2.0286    3.1079    0.0000 C   0  0  0  0  0  0  0  0  0  0  0  0
   -1.2881   -2.2457    0.0000 C   0  0  0  0  0  0  0  0  0  0  0  0
    3.3277    0.8579    0.0000 C   0  0  0  0  0  0  0  0  0  0  0  0
    3.3277    3.8579    0.0000 C   0  0  0  0  0  0  0  0  0  0  0  0
   -0.4016   -5.2504    0.0000 C   0  0  0  0  0  0  0  0  0  0  0  0
    4.6268    1.6079    0.0000 C   0  0  0  0  0  0  0  0  0  0  0  0
    0.0619   -6.6771    0.0000 C   0  0  0  0  0  0  0  0  0  0  0  0
    4.6268    3.1079    0.0000 C   0  0  0  0  0  0  0  0  0  0  0  0
    1.5291   -6.9890    0.0000 C   0  0  0  0  0  0  0  0  0  0  0  0
   -0.9418   -7.7919    0.0000 C   0  0  0  0  0  0  0  0  0  0  0  0
    1.9926   -8.4155    0.0000 C   0  0  0  0  0  0  0  0  0  0  0  0
   -0.4783   -9.2184    0.0000 C   0  0  0  0  0  0  0  0  0  0  0  0
    0.9890   -9.5302    0.0000 C   0  0  0  0  0  0  0  0  0  0  0  0
  1 11  1  0  0  0  0
  1 16  1  0  0  0  0
  2 16  2  0  0  0  0
  3 13  2  0  0  0  0
  4 14  2  0  0  0  0
  5 19  2  0  0  0  0
  6 25  1  0  0  0  0
  7  9  1  0  0  0  0
  7 13  1  0  0  0  0
  7 16  1  0  0  0  0
  8 14  1  0  0  0  0
  8 15  1  0  0  0  0
  9 19  1  0  0  0  0
 10 11  2  0  0  0  0
 10 12  1  0  0  0  0
 10 14  1  0  0  0  0
 11 13  1  0  0  0  0
 12 15  1  0  0  0  0
 12 17  2  0  0  0  0
 15 18  2  0  0  0  0
 17 20  1  0  0  0  0
 18 22  1  0  0  0  0
 19 21  1  0  0  0  0
 20 22  2  0  0  0  0
 21 23  2  0  0  0  0
 21 24  1  0  0  0  0
 23 25  1  0  0  0  0
 24 26  2  0  0  0  0
 25 27  2  0  0  0  0
 26 27  1  0  0  0  0
M  END
> <Value>
3.770574152079305

> <Relation>
=

> <SourceURI>
mol:CHEMBL1603238

$$$$

Generated by Molecular Materials Informatics

 29 31  0  0  0  0  0  0  0  0999 V2000
   22.0457   -1.0782    0.0000 C   0  0  0  0  0  0  0  0  0  0  0  0
   22.0435   -2.5825    0.0000 C   0  0  0  0  0  0  0  0  0  0  0  0
   23.3432   -3.3332    0.0000 C   0  0  0  0  0  0  0  0  0  0  0  0
   24.6457   -2.5815    0.0000 C   0  0  0  0  0  0  0  0  0  0  0  0
   24.6406   -1.0716    0.0000 C   0  0  0  0  0  0  0  0  0  0  0  0
   23.3399   -0.3277    0.0000 C   0  0  0  0  0  0  0  0  0  0  0  0
   23.3353    1.1723    0.0000 O   0  0  0  0  0  0  0  0  0  0  0  0
   25.9366   -0.3167    0.0000 O   0  0  0  0  0  0  0  0  0  0  0  0
   27.2386   -1.0617    0.0000 C   0  0  0  0  0  0  0  0  0  0  0  0
   20.7463   -0.3284    0.0000 O   0  0  0  0  0  0  0  0  0  0  0  0
   19.4475   -1.0788    0.0000 C   0  0  0  0  0  0  0  0  0  0  0  0
   23.3428   -4.8332    0.0000 C   0  0  0  0  0  0  0  0  0  0  0  0
   24.6417   -5.5834    0.0000 C   0  0  0  0  0  0  0  0  0  0  0  0
   24.6349   -7.0795    0.0000 C   0  0  0  0  0  0  0  0  0  0  0  0
   25.9262   -7.8295    0.0000 N   0  0  0  0  0  0  0  0  0  0  0  0
   27.2298   -7.0863    0.0000 C   0  0  0  0  0  0  0  0  0  0  0  0
   27.2338   -5.5845    0.0000 N   0  0  0  0  0  0  0  0  0  0  0  0
   25.9342   -4.8260    0.0000 C   0  0  0  0  0  0  0  0  0  0  0  0
   23.3331   -7.8248    0.0000 O   0  0  0  0  0  0  0  0  0  0  0  0
   25.9330   -3.3262    0.0000 O   0  0  0  0  0  0  0  0  0  0  0  0
   28.5356   -4.8393    0.0000 C   0  0  0  0  0  0  0  0  0  0  0  0
   29.8318   -5.5940    0.0000 C   0  0  0  0  0  0  0  0  0  0  0  0
   29.8179   -7.0953    0.0000 C   0  0  0  0  0  0  0  0  0  0  0  0
   31.1127   -7.8499    0.0000 C   0  0  0  0  0  0  0  0  0  0  0  0
   32.4161   -7.1045    0.0000 C   0  0  0  0  0  0  0  0  0  0  0  0
   32.4168   -5.5968    0.0000 C   0  0  0  0  0  0  0  0  0  0  0  0
   31.1209   -4.8490    0.0000 C   0  0  0  0  0  0  0  0  0  0  0  0
   33.7134   -7.8576    0.0000 F   0  0  0  0  0  0  0  0  0  0  0  0
   28.5258   -7.8415    0.0000 O   0  0  0  0  0  0  0  0  0  0  0  0
  1  2  2  0  0  0  0
  2  3  1  0  0  0  0
  3  4  2  0  0  0  0
  4  5  1  0  0  0  0
  5  6  2  0  0  0  0
  6  1  1  0  0  0  0
  6  7  1  0  0  0  0
  5  8  1  0  0  0  0
  8  9  1  0  0  0  0
  1 10  1  0  0  0  0
 10 11  1  0  0  0  0
  3 12  1  0  0  0  0
 12 13  2  0  0  0  0
 13 14  1  0  0  0  0
 13 18  1  0  0  0  0
 14 15  1  0  0  0  0
 15 16  1  0  0  0  0
 16 17  1  0  0  0  0
 17 18  1  0  0  0  0
 14 19  2  0  0  0  0
 18 20  2  0  0  0  0
 17 21  1  0  0  0  0
 21 22  1  0  0  0  0
 22 23  2  0  0  0  0
 23 24  1  0  0  0  0
 24 25  2  0  0  0  0
 25 26  1  0  0  0  0
 26 27  2  0  0  0  0
 27 22  1  0  0  0  0
 25 28  1  0  0  0  0
 16 29  2  0  0  0  0
M  END
> <Value>
4.102922996790579

> <Relation>
=

> <SourceURI>
mol:CHEMBL2170104

$$$$

Generated by Molecular Materials Informatics

 21 22  0  0  0  0  0  0  0  0999 V2000
    5.4083   -7.7124    0.0000 C   0  0  0  0  0  0  0  0  0  0  0  0
    5.4063   -9.2168    0.0000 C   0  0  0  0  0  0  0  0  0  0  0  0
    6.7058   -9.9675    0.0000 C   0  0  0  0  0  0  0  0  0  0  0  0
    8.0085   -9.2159    0.0000 C   0  0  0  0  0  0  0  0  0  0  0  0
    8.0034   -7.7059    0.0000 C   0  0  0  0  0  0  0  0  0  0  0  0
    6.7027   -6.9619    0.0000 C   0  0  0  0  0  0  0  0  0  0  0  0
    6.6981   -5.4619    0.0000 N   0  0  0  0  0  0  0  0  0  0  0  0
    7.9949   -4.7080    0.0000 C   0  0  0  0  0  0  0  0  0  0  0  0
    7.9905   -3.2080    0.0000 C   0  0  0  0  0  0  0  0  0  0  0  0
    9.2961   -5.4542    0.0000 O   0  0  0  0  0  0  0  0  0  0  0  0
    9.2905   -2.4626    0.0000 C   0  0  0  0  0  0  0  0  0  0  0  0
    9.2867   -0.9640    0.0000 C   0  0  0  0  0  0  0  0  0  0  0  0
    7.9845   -0.2164    0.0000 C   0  0  0  0  0  0  0  0  0  0  0  0
    6.6834   -0.9782    0.0000 C   0  0  0  0  0  0  0  0  0  0  0  0
    6.6936   -2.4742    0.0000 C   0  0  0  0  0  0  0  0  0  0  0  0
   10.5894   -3.2128    0.0000 C   0  0  0  0  0  0  0  0  0  0  0  0
   10.5892   -4.7126    0.0000 O   0  0  0  0  0  0  0  0  0  0  0  0
   11.8885   -2.4629    0.0000 O   0  0  0  0  0  0  0  0  0  0  0  0
    4.1090   -6.9626    0.0000 C   0  0  0  0  0  0  0  0  0  0  0  0
    4.1087   -5.4626    0.0000 O   0  0  0  0  0  0  0  0  0  0  0  0
    2.8103   -7.7130    0.0000 N   0  0  0  0  0  0  0  0  0  0  0  0
  1  2  2  0  0  0  0
  2  3  1  0  0  0  0
  3  4  2  0  0  0  0
  4  5  1  0  0  0  0
  5  6  2  0  0  0  0
  6  1  1  0  0  0  0
  6  7  1  0  0  0  0
  7  8  1  0  0  0  0
  8  9  1  0  0  0  0
  8 10  2  0  0  0  0
  9 11  2  0  0  0  0
 11 12  1  0  0  0  0
 12 13  2  0  0  0  0
 13 14  1  0  0  0  0
 14 15  2  0  0  0  0
 15  9  1  0  0  0  0
 11 16  1  0  0  0  0
 16 17  2  0  0  0  0
 16 18  1  0  0  0  0
  1 19  1  0  0  0  0
 19 20  2  0  0  0  0
 19 21  1  0  0  0  0
M  END
> <Value>
4.178486471595227

> <Relation>
=

> <SourceURI>
mol:CHEMBL2170114

$$$$

Generated by Molecular Materials Informatics

 17 17  0  0  0  0  0  0  0  0999 V2000
   -0.2796   -0.9647    0.0000 C   0  0  0  0  0  0  0  0  0  0  0  0
   -1.5750   -3.2147    0.0000 N   0  0  0  0  0  0  0  0  0  0  0  0
    1.0235   -3.1996    0.0000 N   0  0  0  0  0  0  0  0  0  0  0  0
   -1.5901   -1.7147    0.0000 C   0  0  0  0  0  0  0  0  0  0  0  0
    1.0159   -1.6996    0.0000 C   0  0  0  0  0  0  0  0  0  0  0  0
   -0.2719   -3.9496    0.0000 C   0  0  0  0  0  0  0  0  0  0  0  0
   -0.2947    0.5352    0.0000 C   0  0  0  0  0  0  0  0  0  0  0  0
    0.9931    2.8003    0.0000 C   0  0  0  0  0  0  0  0  0  0  0  0
    1.0008    1.3003    0.0000 N   0  0  0  0  0  0  0  0  0  0  0  0
   -0.3174    3.5352    0.0000 S   0  0  0  0  0  0  0  0  0  0  0  0
   -2.8855   -0.9724    0.0000 O   0  0  0  0  0  0  0  0  0  0  0  0
    2.3113   -0.9269    0.0000 O   0  0  0  0  0  0  0  0  0  0  0  0
   -0.2719   -5.4496    0.0000 O   0  0  0  0  0  0  0  0  0  0  0  0
    2.2886    3.5503    0.0000 N   0  0  0  0  0  0  0  0  0  0  0  0
    3.5689    5.8079    0.0000 C   0  0  0  0  0  0  0  0  0  0  0  0
    3.5689    7.3079    0.0000 C   0  0  0  0  0  0  0  0  0  0  0  0
    2.2735    5.0503    0.0000 C   0  0  0  0  0  0  0  0  0  0  0  0
  2  4  1  0  0  0  0
  3  5  1  0  0  0  0
  4  1  1  0  0  0  0
  5  1  1  0  0  0  0
  6  3  1  0  0  0  0
  7  1  2  0  0  0  0
  8  9  2  0  0  0  0
  9  7  1  0  0  0  0
 10  8  1  0  0  0  0
 11  4  2  0  0  0  0
 12  5  2  0  0  0  0
 13  6  2  0  0  0  0
 14  8  1  0  0  0  0
 15 17  1  0  0  0  0
 16 15  2  0  0  0  0
 17 14  1  0  0  0  0
  6  2  1  0  0  0  0
M  END
> <Value>
4.18111458540599

> <Relation>
=

> <SourceURI>
mol:CHEMBL334141

$$$$

Generated by Molecular Materials Informatics

 31 33  0  0  0  0  0  0  0  0999 V2000
    2.7288   -0.3287    0.0000 N   0  0  0  0  0  0  0  0  0  0  0  0
    1.4409   -1.0787    0.0000 C   0  0  0  0  0  0  0  0  0  0  0  0
    2.7288    1.1713    0.0000 C   0  0  0  0  0  0  0  0  0  0  0  0
   -2.4605   -0.3361    0.0000 C   0  0  0  0  0  0  0  0  0  0  0  0
    0.1378   -0.3210    0.0000 C   0  0  0  0  0  0  0  0  0  0  0  0
   -1.1576   -1.0787    0.0000 N   0  0  0  0  0  0  0  0  0  0  0  0
    4.0318   -1.0787    0.0000 C   0  0  0  0  0  0  0  0  0  0  0  0
    5.3273   -0.3287    0.0000 C   0  0  0  0  0  0  0  0  0  0  0  0
   -3.7560   -1.0861    0.0000 C   0  0  0  0  0  0  0  0  0  0  0  0
    6.6304   -1.0787    0.0000 N   0  0  0  0  0  0  0  0  0  0  0  0
    1.4409   -2.5787    0.0000 O   0  0  0  0  0  0  0  0  0  0  0  0
    1.4333    1.9213    0.0000 C   0  0  0  0  0  0  0  0  0  0  0  0
   -2.4682    1.1639    0.0000 O   0  0  0  0  0  0  0  0  0  0  0  0
    4.0318    1.9213    0.0000 O   0  0  0  0  0  0  0  0  0  0  0  0
    0.1228    1.1713    0.0000 C   0  0  0  0  0  0  0  0  0  0  0  0
    5.3273    1.1713    0.0000 O   0  0  0  0  0  0  0  0  0  0  0  0
   -5.0591   -0.3438    0.0000 C   0  0  0  0  0  0  0  0  0  0  0  0
    7.9258   -0.3287    0.0000 C   0  0  0  0  0  0  0  0  0  0  0  0
   -3.7560   -2.5861    0.0000 N   0  0  0  0  0  0  0  0  0  0  0  0
   10.5168    1.1639    0.0000 C   0  0  0  0  0  0  0  0  0  0  0  0
   -6.3545   -1.1014    0.0000 C   0  0  0  0  0  0  0  0  0  0  0  0
   11.8197    1.9213    0.0000 F   0  0  0  0  0  0  0  0  0  0  0  0
    7.9182    1.1639    0.0000 C   0  0  0  0  0  0  0  0  0  0  0  0
    9.2213   -1.0861    0.0000 C   0  0  0  0  0  0  0  0  0  0  0  0
   10.5168   -0.3361    0.0000 C   0  0  0  0  0  0  0  0  0  0  0  0
    9.2137    1.9139    0.0000 C   0  0  0  0  0  0  0  0  0  0  0  0
   -7.6576   -0.3514    0.0000 C   0  0  0  0  0  0  0  0  0  0  0  0
   -6.3545   -2.6088    0.0000 C   0  0  0  0  0  0  0  0  0  0  0  0
   -8.9531   -1.1014    0.0000 C   0  0  0  0  0  0  0  0  0  0  0  0
   -7.6576   -3.3588    0.0000 C   0  0  0  0  0  0  0  0  0  0  0  0
   -8.9531   -2.6088    0.0000 C   0  0  0  0  0  0  0  0  0  0  0  0
  2  1  1  0  0  0  0
  3  1  1  0  0  0  0
  4  6  1  0  0  0  0
  5  2  1  0  0  0  0
  5  6  1  1  0  0  0
  7  1  1  0  0  0  0
  8  7  1  0  0  0  0
  9  4  1  0  0  0  0
 10  8  1  0  0  0  0
 11  2  2  0  0  0  0
 12  3  1  0  0  0  0
 13  4  2  0  0  0  0
 14  3  2  0  0  0  0
 15 12  1  0  0  0  0
 16  8  2  0  0  0  0
 17  9  1  0  0  0  0
 18 10  1  0  0  0  0
  9 19  1  1  0  0  0
 20 26  1  0  0  0  0
 21 17  1  0  0  0  0
 22 20  1  0  0  0  0
 23 18  1  0  0  0  0
 24 18  2  0  0  0  0
 25 24  1  0  0  0  0
 26 23  2  0  0  0  0
 27 21  2  0  0  0  0
 28 21  1  0  0  0  0
 29 27  1  0  0  0  0
 30 28  2  0  0  0  0
 31 29  2  0  0  0  0
 15  5  1  0  0  0  0
 20 25  2  0  0  0  0
 30 31  1  0  0  0  0
M  END
> <Value>
3.5983582515022285

> <Relation>
=

> <SourceURI>
mol:CHEMBL1214487

$$$$

Generated by Molecular Materials Informatics

 32 34  0  0  0  0  0  0  0  0999 V2000
   16.3873   -0.3619    0.0000 N   0  0  0  0  0  0  0  0  0  0  0  0
   15.0995   -1.1119    0.0000 C   0  0  0  0  0  0  0  0  0  0  0  0
   16.3873    1.1381    0.0000 C   0  0  0  0  0  0  0  0  0  0  0  0
   11.1980   -0.3696    0.0000 C   0  0  0  0  0  0  0  0  0  0  0  0
   13.7964   -0.3543    0.0000 C   0  0  0  0  0  0  0  0  0  0  0  0
   12.5009   -1.1119    0.0000 N   0  0  0  0  0  0  0  0  0  0  0  0
   17.6904   -1.1119    0.0000 C   0  0  0  0  0  0  0  0  0  0  0  0
   18.9858   -0.3619    0.0000 C   0  0  0  0  0  0  0  0  0  0  0  0
    9.9025   -1.1196    0.0000 C   0  0  0  0  0  0  0  0  0  0  0  0
   20.2889   -1.1119    0.0000 N   0  0  0  0  0  0  0  0  0  0  0  0
   15.0995   -2.6119    0.0000 O   0  0  0  0  0  0  0  0  0  0  0  0
   15.0918    1.8881    0.0000 C   0  0  0  0  0  0  0  0  0  0  0  0
   11.1904    1.1304    0.0000 O   0  0  0  0  0  0  0  0  0  0  0  0
   17.6904    1.8881    0.0000 O   0  0  0  0  0  0  0  0  0  0  0  0
   13.7813    1.1381    0.0000 C   0  0  0  0  0  0  0  0  0  0  0  0
   18.9858    1.1381    0.0000 O   0  0  0  0  0  0  0  0  0  0  0  0
    8.5995   -0.3770    0.0000 C   0  0  0  0  0  0  0  0  0  0  0  0
   21.5844   -0.3619    0.0000 C   0  0  0  0  0  0  0  0  0  0  0  0
    9.9025   -2.6196    0.0000 N   0  0  0  0  0  0  0  0  0  0  0  0
   24.1753    1.1304    0.0000 C   0  0  0  0  0  0  0  0  0  0  0  0
    7.3040   -1.1346    0.0000 C   0  0  0  0  0  0  0  0  0  0  0  0
   22.8798   -1.1196    0.0000 C   0  0  0  0  0  0  0  0  0  0  0  0
   21.5767    1.1304    0.0000 C   0  0  0  0  0  0  0  0  0  0  0  0
   22.8722    1.8804    0.0000 C   0  0  0  0  0  0  0  0  0  0  0  0
   24.1753   -0.3696    0.0000 C   0  0  0  0  0  0  0  0  0  0  0  0
   25.4782    1.8881    0.0000 O   0  0  0  0  0  0  0  0  0  0  0  0
    6.0009   -0.3846    0.0000 C   0  0  0  0  0  0  0  0  0  0  0  0
    7.3040   -2.6423    0.0000 C   0  0  0  0  0  0  0  0  0  0  0  0
   26.7736    1.1381    0.0000 C   0  0  0  0  0  0  0  0  0  0  0  0
    6.0009   -3.3923    0.0000 C   0  0  0  0  0  0  0  0  0  0  0  0
    4.7055   -1.1346    0.0000 C   0  0  0  0  0  0  0  0  0  0  0  0
    4.7055   -2.6423    0.0000 C   0  0  0  0  0  0  0  0  0  0  0  0
  2  1  1  0  0  0  0
  3  1  1  0  0  0  0
  4  6  1  0  0  0  0
  5  2  1  0  0  0  0
  5  6  1  1  0  0  0
  7  1  1  0  0  0  0
  8  7  1  0  0  0  0
  9  4  1  0  0  0  0
 10  8  1  0  0  0  0
 11  2  2  0  0  0  0
 12  3  1  0  0  0  0
 13  4  2  0  0  0  0
 14  3  2  0  0  0  0
 15 12  1  0  0  0  0
 16  8  2  0  0  0  0
 17  9  1  0  0  0  0
 18 10  1  0  0  0  0
  9 19  1  1  0  0  0
 20 24  1  0  0  0  0
 21 17  1  0  0  0  0
 22 18  2  0  0  0  0
 23 18  1  0  0  0  0
 24 23  2  0  0  0  0
 25 22  1  0  0  0  0
 26 20  1  0  0  0  0
 27 21  2  0  0  0  0
 28 21  1  0  0  0  0
 29 26  1  0  0  0  0
 30 28  2  0  0  0  0
 31 27  1  0  0  0  0
 32 31  2  0  0  0  0
 15  5  1  0  0  0  0
 20 25  2  0  0  0  0
 30 32  1  0  0  0  0
M  END
> <Value>
3.7490679297998866

> <Relation>
=

> <SourceURI>
mol:CHEMBL1214541

$$$$

Generated by Molecular Materials Informatics

 32 34  0  0  0  0  0  0  0  0999 V2000
    2.9788   -5.9119    0.0000 N   0  0  0  0  0  0  0  0  0  0  0  0
    1.6909   -6.6619    0.0000 C   0  0  0  0  0  0  0  0  0  0  0  0
    2.9788   -4.4119    0.0000 C   0  0  0  0  0  0  0  0  0  0  0  0
   -2.2105   -5.9196    0.0000 C   0  0  0  0  0  0  0  0  0  0  0  0
    0.3878   -5.9043    0.0000 C   0  0  0  0  0  0  0  0  0  0  0  0
   -0.9076   -6.6619    0.0000 N   0  0  0  0  0  0  0  0  0  0  0  0
    5.5773   -5.9119    0.0000 C   0  0  0  0  0  0  0  0  0  0  0  0
    4.2818   -6.6619    0.0000 C   0  0  0  0  0  0  0  0  0  0  0  0
    6.8804   -6.6619    0.0000 N   0  0  0  0  0  0  0  0  0  0  0  0
    8.1758   -5.9119    0.0000 C   0  0  0  0  0  0  0  0  0  0  0  0
    8.1682   -4.4196    0.0000 C   0  0  0  0  0  0  0  0  0  0  0  0
   -3.5060   -6.6696    0.0000 C   0  0  0  0  0  0  0  0  0  0  0  0
    1.6909   -8.1619    0.0000 O   0  0  0  0  0  0  0  0  0  0  0  0
    1.6833   -3.6619    0.0000 C   0  0  0  0  0  0  0  0  0  0  0  0
   -2.2182   -4.4196    0.0000 O   0  0  0  0  0  0  0  0  0  0  0  0
    4.2818   -3.6619    0.0000 O   0  0  0  0  0  0  0  0  0  0  0  0
    0.3728   -4.4119    0.0000 C   0  0  0  0  0  0  0  0  0  0  0  0
    9.4637   -3.6696    0.0000 C   0  0  0  0  0  0  0  0  0  0  0  0
    5.5773   -4.4119    0.0000 O   0  0  0  0  0  0  0  0  0  0  0  0
   -4.8091   -5.9270    0.0000 C   0  0  0  0  0  0  0  0  0  0  0  0
    9.4713   -6.6696    0.0000 C   0  0  0  0  0  0  0  0  0  0  0  0
   -3.5060   -8.1696    0.0000 N   0  0  0  0  0  0  0  0  0  0  0  0
   10.7668   -4.4196    0.0000 C   0  0  0  0  0  0  0  0  0  0  0  0
   10.7668   -5.9196    0.0000 C   0  0  0  0  0  0  0  0  0  0  0  0
   -6.1045   -6.6846    0.0000 C   0  0  0  0  0  0  0  0  0  0  0  0
    6.8651   -3.6770    0.0000 C   0  0  0  0  0  0  0  0  0  0  0  0
   12.0697   -3.6619    0.0000 C   0  0  0  0  0  0  0  0  0  0  0  0
   -6.1045   -8.1923    0.0000 C   0  0  0  0  0  0  0  0  0  0  0  0
   -7.4076   -5.9346    0.0000 C   0  0  0  0  0  0  0  0  0  0  0  0
   -7.4076   -8.9423    0.0000 C   0  0  0  0  0  0  0  0  0  0  0  0
   -8.7031   -6.6846    0.0000 C   0  0  0  0  0  0  0  0  0  0  0  0
   -8.7031   -8.1923    0.0000 C   0  0  0  0  0  0  0  0  0  0  0  0
  2  1  1  0  0  0  0
  3  1  1  0  0  0  0
  4  6  1  0  0  0  0
  5  2  1  0  0  0  0
  5  6  1  1  0  0  0
  7  8  1  0  0  0  0
  8  1  1  0  0  0  0
  9  7  1  0  0  0  0
 10  9  1  0  0  0  0
 11 10  1  0  0  0  0
 12  4  1  0  0  0  0
 13  2  2  0  0  0  0
 14  3  1  0  0  0  0
 15  4  2  0  0  0  0
 16  3  2  0  0  0  0
 17 14  1  0  0  0  0
 18 11  2  0  0  0  0
 19  7  2  0  0  0  0
 20 12  1  0  0  0  0
 21 10  2  0  0  0  0
 12 22  1  1  0  0  0
 23 18  1  0  0  0  0
 24 21  1  0  0  0  0
 25 20  1  0  0  0  0
 26 11  1  0  0  0  0
 27 23  1  0  0  0  0
 28 25  1  0  0  0  0
 29 25  2  0  0  0  0
 30 28  2  0  0  0  0
 31 29  1  0  0  0  0
 32 31  2  0  0  0  0
 17  5  1  0  0  0  0
 23 24  2  0  0  0  0
 30 32  1  0  0  0  0
M  END
> <Value>
5.301029995663981

> <Relation>
=

> <SourceURI>
mol:CHEMBL1214542

$$$$

Generated by Molecular Materials Informatics

 31 33  0  0  0  0  0  0  0  0999 V2000
   17.0637   -6.5020    0.0000 N   0  0  0  0  0  0  0  0  0  0  0  0
   15.7682   -7.2520    0.0000 C   0  0  0  0  0  0  0  0  0  0  0  0
   17.0637   -5.0020    0.0000 C   0  0  0  0  0  0  0  0  0  0  0  0
   11.8742   -6.5094    0.0000 C   0  0  0  0  0  0  0  0  0  0  0  0
   14.4727   -6.4943    0.0000 C   0  0  0  0  0  0  0  0  0  0  0  0
   13.1773   -7.2520    0.0000 N   0  0  0  0  0  0  0  0  0  0  0  0
   19.6622   -6.5020    0.0000 C   0  0  0  0  0  0  0  0  0  0  0  0
   18.3667   -7.2520    0.0000 C   0  0  0  0  0  0  0  0  0  0  0  0
   20.9576   -7.2520    0.0000 N   0  0  0  0  0  0  0  0  0  0  0  0
   10.5787   -7.2594    0.0000 C   0  0  0  0  0  0  0  0  0  0  0  0
   15.7758   -8.7520    0.0000 O   0  0  0  0  0  0  0  0  0  0  0  0
   15.7682   -4.2520    0.0000 C   0  0  0  0  0  0  0  0  0  0  0  0
   11.8667   -5.0094    0.0000 O   0  0  0  0  0  0  0  0  0  0  0  0
   18.3667   -4.2520    0.0000 O   0  0  0  0  0  0  0  0  0  0  0  0
   22.2606   -6.5020    0.0000 C   0  0  0  0  0  0  0  0  0  0  0  0
   14.4577   -5.0020    0.0000 C   0  0  0  0  0  0  0  0  0  0  0  0
   19.6622   -5.0020    0.0000 O   0  0  0  0  0  0  0  0  0  0  0  0
   22.2531   -5.0094    0.0000 C   0  0  0  0  0  0  0  0  0  0  0  0
    9.2758   -6.5171    0.0000 C   0  0  0  0  0  0  0  0  0  0  0  0
   23.5486   -4.2594    0.0000 C   0  0  0  0  0  0  0  0  0  0  0  0
   10.5787   -8.7594    0.0000 N   0  0  0  0  0  0  0  0  0  0  0  0
    7.9804   -7.2747    0.0000 C   0  0  0  0  0  0  0  0  0  0  0  0
   23.5409   -2.7594    0.0000 Cl  0  0  0  0  0  0  0  0  0  0  0  0
   24.8515   -6.5094    0.0000 C   0  0  0  0  0  0  0  0  0  0  0  0
   23.5560   -7.2594    0.0000 C   0  0  0  0  0  0  0  0  0  0  0  0
   24.8515   -5.0094    0.0000 C   0  0  0  0  0  0  0  0  0  0  0  0
    6.6773   -6.5247    0.0000 C   0  0  0  0  0  0  0  0  0  0  0  0
    7.9804   -8.7822    0.0000 C   0  0  0  0  0  0  0  0  0  0  0  0
    5.3818   -7.2747    0.0000 C   0  0  0  0  0  0  0  0  0  0  0  0
    6.6773   -9.5322    0.0000 C   0  0  0  0  0  0  0  0  0  0  0  0
    5.3818   -8.7822    0.0000 C   0  0  0  0  0  0  0  0  0  0  0  0
  2  1  1  0  0  0  0
  3  1  1  0  0  0  0
  4  6  1  0  0  0  0
  5  2  1  0  0  0  0
  5  6  1  1  0  0  0
  7  8  1  0  0  0  0
  8  1  1  0  0  0  0
  9  7  1  0  0  0  0
 10  4  1  0  0  0  0
 11  2  2  0  0  0  0
 12  3  1  0  0  0  0
 13  4  2  0  0  0  0
 14  3  2  0  0  0  0
 15  9  1  0  0  0  0
 16 12  1  0  0  0  0
 17  7  2  0  0  0  0
 18 15  1  0  0  0  0
 19 10  1  0  0  0  0
 20 18  2  0  0  0  0
 10 21  1  1  0  0  0
 22 19  1  0  0  0  0
 23 20  1  0  0  0  0
 24 25  1  0  0  0  0
 25 15  2  0  0  0  0
 26 20  1  0  0  0  0
 27 22  2  0  0  0  0
 28 22  1  0  0  0  0
 29 27  1  0  0  0  0
 30 28  2  0  0  0  0
 31 29  2  0  0  0  0
 16  5  1  0  0  0  0
 26 24  2  0  0  0  0
 30 31  1  0  0  0  0
M  END
> <Value>
5.1598939055432425

> <Relation>
=

> <SourceURI>
mol:CHEMBL1214543

$$$$

Generated by Molecular Materials Informatics

 31 33  0  0  0  0  0  0  0  0999 V2000
    2.6929  -11.7744    0.0000 N   0  0  0  0  0  0  0  0  0  0  0  0
    1.3974  -12.5244    0.0000 C   0  0  0  0  0  0  0  0  0  0  0  0
    2.6929  -10.2744    0.0000 C   0  0  0  0  0  0  0  0  0  0  0  0
   -2.4966  -11.7821    0.0000 C   0  0  0  0  0  0  0  0  0  0  0  0
    0.1019  -11.7668    0.0000 C   0  0  0  0  0  0  0  0  0  0  0  0
   -1.1935  -12.5244    0.0000 N   0  0  0  0  0  0  0  0  0  0  0  0
    5.2912  -11.7744    0.0000 C   0  0  0  0  0  0  0  0  0  0  0  0
    3.9958  -12.5244    0.0000 C   0  0  0  0  0  0  0  0  0  0  0  0
    6.5943  -12.5244    0.0000 N   0  0  0  0  0  0  0  0  0  0  0  0
    7.8898  -11.7744    0.0000 C   0  0  0  0  0  0  0  0  0  0  0  0
   -3.7921  -12.5321    0.0000 C   0  0  0  0  0  0  0  0  0  0  0  0
    1.4049  -14.0244    0.0000 O   0  0  0  0  0  0  0  0  0  0  0  0
    1.3974   -9.5244    0.0000 C   0  0  0  0  0  0  0  0  0  0  0  0
   -2.5042  -10.2821    0.0000 O   0  0  0  0  0  0  0  0  0  0  0  0
    3.9958   -9.5244    0.0000 O   0  0  0  0  0  0  0  0  0  0  0  0
    0.0867  -10.2744    0.0000 C   0  0  0  0  0  0  0  0  0  0  0  0
    5.2912  -10.2744    0.0000 O   0  0  0  0  0  0  0  0  0  0  0  0
    7.8821  -10.2821    0.0000 C   0  0  0  0  0  0  0  0  0  0  0  0
   -5.0952  -11.7895    0.0000 C   0  0  0  0  0  0  0  0  0  0  0  0
   -3.7921  -14.0321    0.0000 N   0  0  0  0  0  0  0  0  0  0  0  0
    6.5792   -9.5395    0.0000 F   0  0  0  0  0  0  0  0  0  0  0  0
   -6.3906  -12.5471    0.0000 C   0  0  0  0  0  0  0  0  0  0  0  0
    9.1852  -12.5321    0.0000 C   0  0  0  0  0  0  0  0  0  0  0  0
    9.1776   -9.5321    0.0000 C   0  0  0  0  0  0  0  0  0  0  0  0
   -7.6935  -11.7971    0.0000 C   0  0  0  0  0  0  0  0  0  0  0  0
   -6.3906  -14.0548    0.0000 C   0  0  0  0  0  0  0  0  0  0  0  0
   10.4807  -11.7821    0.0000 C   0  0  0  0  0  0  0  0  0  0  0  0
   10.4807  -10.2821    0.0000 C   0  0  0  0  0  0  0  0  0  0  0  0
   -8.9890  -12.5471    0.0000 C   0  0  0  0  0  0  0  0  0  0  0  0
   -7.6935  -14.8048    0.0000 C   0  0  0  0  0  0  0  0  0  0  0  0
   -8.9890  -14.0548    0.0000 C   0  0  0  0  0  0  0  0  0  0  0  0
  2  1  1  0  0  0  0
  3  1  1  0  0  0  0
  4  6  1  0  0  0  0
  5  2  1  0  0  0  0
  5  6  1  1  0  0  0
  7  8  1  0  0  0  0
  8  1  1  0  0  0  0
  9  7  1  0  0  0  0
 10  9  1  0  0  0  0
 11  4  1  0  0  0  0
 12  2  2  0  0  0  0
 13  3  1  0  0  0  0
 14  4  2  0  0  0  0
 15  3  2  0  0  0  0
 16 13  1  0  0  0  0
 17  7  2  0  0  0  0
 18 10  1  0  0  0  0
 19 11  1  0  0  0  0
 11 20  1  1  0  0  0
 21 18  1  0  0  0  0
 22 19  1  0  0  0  0
 23 10  2  0  0  0  0
 24 18  2  0  0  0  0
 25 22  2  0  0  0  0
 26 22  1  0  0  0  0
 27 23  1  0  0  0  0
 28 24  1  0  0  0  0
 29 25  1  0  0  0  0
 30 26  2  0  0  0  0
 31 29  2  0  0  0  0
 16  5  1  0  0  0  0
 28 27  2  0  0  0  0
 30 31  1  0  0  0  0
M  END
> <Value>
3.610196237025571

> <Relation>
=

> <SourceURI>
mol:CHEMBL1214544

$$$$

Generated by Molecular Materials Informatics

 31 33  0  0  0  0  0  0  0  0999 V2000
   17.0372  -11.9619    0.0000 N   0  0  0  0  0  0  0  0  0  0  0  0
   15.7417  -12.7119    0.0000 C   0  0  0  0  0  0  0  0  0  0  0  0
   17.0372  -10.4619    0.0000 C   0  0  0  0  0  0  0  0  0  0  0  0
   11.8477  -11.9696    0.0000 C   0  0  0  0  0  0  0  0  0  0  0  0
   14.4462  -11.9543    0.0000 C   0  0  0  0  0  0  0  0  0  0  0  0
   13.1508  -12.7119    0.0000 N   0  0  0  0  0  0  0  0  0  0  0  0
   18.3401  -12.7119    0.0000 C   0  0  0  0  0  0  0  0  0  0  0  0
   19.6355  -11.9619    0.0000 C   0  0  0  0  0  0  0  0  0  0  0  0
   10.5522  -12.7196    0.0000 C   0  0  0  0  0  0  0  0  0  0  0  0
   20.9386  -12.7119    0.0000 N   0  0  0  0  0  0  0  0  0  0  0  0
   15.7492  -14.2119    0.0000 O   0  0  0  0  0  0  0  0  0  0  0  0
   15.7417   -9.7119    0.0000 C   0  0  0  0  0  0  0  0  0  0  0  0
   11.8401  -10.4696    0.0000 O   0  0  0  0  0  0  0  0  0  0  0  0
   18.3401   -9.7119    0.0000 O   0  0  0  0  0  0  0  0  0  0  0  0
   14.4310  -10.4619    0.0000 C   0  0  0  0  0  0  0  0  0  0  0  0
   19.6355  -10.4619    0.0000 O   0  0  0  0  0  0  0  0  0  0  0  0
    9.2492  -11.9770    0.0000 C   0  0  0  0  0  0  0  0  0  0  0  0
   22.2341  -11.9619    0.0000 C   0  0  0  0  0  0  0  0  0  0  0  0
   10.5522  -14.2196    0.0000 N   0  0  0  0  0  0  0  0  0  0  0  0
   24.8250  -10.4696    0.0000 C   0  0  0  0  0  0  0  0  0  0  0  0
    7.9537  -12.7346    0.0000 C   0  0  0  0  0  0  0  0  0  0  0  0
   26.1281   -9.7119    0.0000 Br  0  0  0  0  0  0  0  0  0  0  0  0
   22.2264  -10.4696    0.0000 C   0  0  0  0  0  0  0  0  0  0  0  0
   23.5295  -12.7196    0.0000 C   0  0  0  0  0  0  0  0  0  0  0  0
   24.8250  -11.9696    0.0000 C   0  0  0  0  0  0  0  0  0  0  0  0
   23.5219   -9.7196    0.0000 C   0  0  0  0  0  0  0  0  0  0  0  0
    6.6508  -11.9846    0.0000 C   0  0  0  0  0  0  0  0  0  0  0  0
    7.9537  -14.2423    0.0000 C   0  0  0  0  0  0  0  0  0  0  0  0
    5.3553  -12.7346    0.0000 C   0  0  0  0  0  0  0  0  0  0  0  0
    6.6508  -14.9923    0.0000 C   0  0  0  0  0  0  0  0  0  0  0  0
    5.3553  -14.2423    0.0000 C   0  0  0  0  0  0  0  0  0  0  0  0
  2  1  1  0  0  0  0
  3  1  1  0  0  0  0
  4  6  1  0  0  0  0
  5  2  1  0  0  0  0
  5  6  1  1  0  0  0
  7  1  1  0  0  0  0
  8  7  1  0  0  0  0
  9  4  1  0  0  0  0
 10  8  1  0  0  0  0
 11  2  2  0  0  0  0
 12  3  1  0  0  0  0
 13  4  2  0  0  0  0
 14  3  2  0  0  0  0
 15 12  1  0  0  0  0
 16  8  2  0  0  0  0
 17  9  1  0  0  0  0
 18 10  1  0  0  0  0
  9 19  1  1  0  0  0
 20 26  1  0  0  0  0
 21 17  1  0  0  0  0
 22 20  1  0  0  0  0
 23 18  1  0  0  0  0
 24 18  2  0  0  0  0
 25 24  1  0  0  0  0
 26 23  2  0  0  0  0
 27 21  2  0  0  0  0
 28 21  1  0  0  0  0
 29 27  1  0  0  0  0
 30 28  2  0  0  0  0
 31 29  2  0  0  0  0
 15  5  1  0  0  0  0
 20 25  2  0  0  0  0
 30 31  1  0  0  0  0
M  END
> <Value>
4.130768280269024

> <Relation>
=

> <SourceURI>
mol:CHEMBL1214590

$$$$

Generated by Molecular Materials Informatics

 32 34  0  0  0  0  0  0  0  0999 V2000
    3.2038  -18.0770    0.0000 N   0  0  0  0  0  0  0  0  0  0  0  0
    1.9159  -18.8270    0.0000 C   0  0  0  0  0  0  0  0  0  0  0  0
    3.2038  -16.5770    0.0000 C   0  0  0  0  0  0  0  0  0  0  0  0
   -1.9855  -18.0844    0.0000 C   0  0  0  0  0  0  0  0  0  0  0  0
    0.6128  -18.0693    0.0000 C   0  0  0  0  0  0  0  0  0  0  0  0
   -0.6826  -18.8270    0.0000 N   0  0  0  0  0  0  0  0  0  0  0  0
    5.8023  -18.0770    0.0000 C   0  0  0  0  0  0  0  0  0  0  0  0
    4.5068  -18.8270    0.0000 C   0  0  0  0  0  0  0  0  0  0  0  0
    9.6887  -15.8344    0.0000 C   0  0  0  0  0  0  0  0  0  0  0  0
    8.3932  -16.5844    0.0000 C   0  0  0  0  0  0  0  0  0  0  0  0
    7.1054  -18.8270    0.0000 N   0  0  0  0  0  0  0  0  0  0  0  0
   -3.2810  -18.8344    0.0000 C   0  0  0  0  0  0  0  0  0  0  0  0
    1.9159  -20.3270    0.0000 O   0  0  0  0  0  0  0  0  0  0  0  0
    8.4008  -18.0770    0.0000 C   0  0  0  0  0  0  0  0  0  0  0  0
   10.9917  -16.5844    0.0000 C   0  0  0  0  0  0  0  0  0  0  0  0
    1.9083  -15.8270    0.0000 C   0  0  0  0  0  0  0  0  0  0  0  0
   -1.9932  -16.5844    0.0000 O   0  0  0  0  0  0  0  0  0  0  0  0
    4.5068  -15.8270    0.0000 O   0  0  0  0  0  0  0  0  0  0  0  0
    0.5978  -16.5770    0.0000 C   0  0  0  0  0  0  0  0  0  0  0  0
    5.8023  -16.5770    0.0000 O   0  0  0  0  0  0  0  0  0  0  0  0
   -4.5841  -18.0921    0.0000 C   0  0  0  0  0  0  0  0  0  0  0  0
   10.9917  -18.0844    0.0000 C   0  0  0  0  0  0  0  0  0  0  0  0
    9.6810  -14.3344    0.0000 Cl  0  0  0  0  0  0  0  0  0  0  0  0
   -3.2810  -20.3344    0.0000 N   0  0  0  0  0  0  0  0  0  0  0  0
    9.6963  -18.8344    0.0000 C   0  0  0  0  0  0  0  0  0  0  0  0
   12.2947  -15.8270    0.0000 F   0  0  0  0  0  0  0  0  0  0  0  0
   -5.8795  -18.8497    0.0000 C   0  0  0  0  0  0  0  0  0  0  0  0
   -5.8795  -20.3572    0.0000 C   0  0  0  0  0  0  0  0  0  0  0  0
   -7.1826  -18.0997    0.0000 C   0  0  0  0  0  0  0  0  0  0  0  0
   -7.1826  -21.1072    0.0000 C   0  0  0  0  0  0  0  0  0  0  0  0
   -8.4781  -18.8497    0.0000 C   0  0  0  0  0  0  0  0  0  0  0  0
   -8.4781  -20.3572    0.0000 C   0  0  0  0  0  0  0  0  0  0  0  0
  2  1  1  0  0  0  0
  3  1  1  0  0  0  0
  4  6  1  0  0  0  0
  5  2  1  0  0  0  0
  5  6  1  1  0  0  0
  7  8  1  0  0  0  0
  8  1  1  0  0  0  0
  9 10  2  0  0  0  0
 10 14  1  0  0  0  0
 11  7  1  0  0  0  0
 12  4  1  0  0  0  0
 13  2  2  0  0  0  0
 14 11  1  0  0  0  0
 15  9  1  0  0  0  0
 16  3  1  0  0  0  0
 17  4  2  0  0  0  0
 18  3  2  0  0  0  0
 19 16  1  0  0  0  0
 20  7  2  0  0  0  0
 21 12  1  0  0  0  0
 22 25  1  0  0  0  0
 23  9  1  0  0  0  0
 12 24  1  1  0  0  0
 25 14  2  0  0  0  0
 26 15  1  0  0  0  0
 27 21  1  0  0  0  0
 28 27  1  0  0  0  0
 29 27  2  0  0  0  0
 30 28  2  0  0  0  0
 31 29  1  0  0  0  0
 32 31  2  0  0  0  0
 19  5  1  0  0  0  0
 15 22  2  0  0  0  0
 30 32  1  0  0  0  0
M  END
> <Value>
3.7699344487939532

> <Relation>
=

> <SourceURI>
mol:CHEMBL1214591

$$$$

Generated by Molecular Materials Informatics

 32 34  0  0  0  0  0  0  0  0999 V2000
   17.1579  -17.7020    0.0000 N   0  0  0  0  0  0  0  0  0  0  0  0
   15.8625  -18.4520    0.0000 C   0  0  0  0  0  0  0  0  0  0  0  0
   17.1579  -16.2020    0.0000 C   0  0  0  0  0  0  0  0  0  0  0  0
   11.9685  -17.7094    0.0000 C   0  0  0  0  0  0  0  0  0  0  0  0
   14.5671  -17.6943    0.0000 C   0  0  0  0  0  0  0  0  0  0  0  0
   13.2716  -18.4520    0.0000 N   0  0  0  0  0  0  0  0  0  0  0  0
   19.7565  -17.7020    0.0000 C   0  0  0  0  0  0  0  0  0  0  0  0
   18.4610  -18.4520    0.0000 C   0  0  0  0  0  0  0  0  0  0  0  0
   23.6428  -15.4594    0.0000 C   0  0  0  0  0  0  0  0  0  0  0  0
   22.3474  -16.2094    0.0000 C   0  0  0  0  0  0  0  0  0  0  0  0
   21.0519  -18.4520    0.0000 N   0  0  0  0  0  0  0  0  0  0  0  0
   10.6731  -18.4594    0.0000 C   0  0  0  0  0  0  0  0  0  0  0  0
   15.8701  -19.9520    0.0000 O   0  0  0  0  0  0  0  0  0  0  0  0
   22.3548  -17.7020    0.0000 C   0  0  0  0  0  0  0  0  0  0  0  0
   24.9457  -16.2094    0.0000 C   0  0  0  0  0  0  0  0  0  0  0  0
   15.8625  -15.4520    0.0000 C   0  0  0  0  0  0  0  0  0  0  0  0
   11.9611  -16.2094    0.0000 O   0  0  0  0  0  0  0  0  0  0  0  0
   18.4610  -15.4520    0.0000 O   0  0  0  0  0  0  0  0  0  0  0  0
   14.5520  -16.2020    0.0000 C   0  0  0  0  0  0  0  0  0  0  0  0
   19.7565  -16.2020    0.0000 O   0  0  0  0  0  0  0  0  0  0  0  0
    9.3702  -17.7171    0.0000 C   0  0  0  0  0  0  0  0  0  0  0  0
   24.9457  -17.7094    0.0000 C   0  0  0  0  0  0  0  0  0  0  0  0
   23.6352  -13.9595    0.0000 F   0  0  0  0  0  0  0  0  0  0  0  0
   10.6731  -19.9594    0.0000 N   0  0  0  0  0  0  0  0  0  0  0  0
   23.6503  -18.4594    0.0000 C   0  0  0  0  0  0  0  0  0  0  0  0
   26.2488  -15.4520    0.0000 F   0  0  0  0  0  0  0  0  0  0  0  0
    8.0747  -18.4747    0.0000 C   0  0  0  0  0  0  0  0  0  0  0  0
    8.0747  -19.9821    0.0000 C   0  0  0  0  0  0  0  0  0  0  0  0
    6.7716  -17.7247    0.0000 C   0  0  0  0  0  0  0  0  0  0  0  0
    6.7716  -20.7321    0.0000 C   0  0  0  0  0  0  0  0  0  0  0  0
    5.4762  -18.4747    0.0000 C   0  0  0  0  0  0  0  0  0  0  0  0
    5.4762  -19.9821    0.0000 C   0  0  0  0  0  0  0  0  0  0  0  0
  2  1  1  0  0  0  0
  3  1  1  0  0  0  0
  4  6  1  0  0  0  0
  5  2  1  0  0  0  0
  5  6  1  1  0  0  0
  7  8  1  0  0  0  0
  8  1  1  0  0  0  0
  9 10  2  0  0  0  0
 10 14  1  0  0  0  0
 11  7  1  0  0  0  0
 12  4  1  0  0  0  0
 13  2  2  0  0  0  0
 14 11  1  0  0  0  0
 15  9  1  0  0  0  0
 16  3  1  0  0  0  0
 17  4  2  0  0  0  0
 18  3  2  0  0  0  0
 19 16  1  0  0  0  0
 20  7  2  0  0  0  0
 21 12  1  0  0  0  0
 22 25  1  0  0  0  0
 23  9  1  0  0  0  0
 12 24  1  1  0  0  0
 25 14  2  0  0  0  0
 26 15  1  0  0  0  0
 27 21  1  0  0  0  0
 28 27  1  0  0  0  0
 29 27  2  0  0  0  0
 30 28  2  0  0  0  0
 31 29  1  0  0  0  0
 32 31  2  0  0  0  0
 19  5  1  0  0  0  0
 15 22  2  0  0  0  0
 30 32  1  0  0  0  0
M  END
> <Value>
4.272214825817094

> <Relation>
=

> <SourceURI>
mol:CHEMBL1214592

$$$$

Generated by Molecular Materials Informatics

 35 37  0  0  0  0  0  0  0  0999 V2000
    1.9384  -23.3494    0.0000 N   0  0  0  0  0  0  0  0  0  0  0  0
    0.6506  -24.0994    0.0000 C   0  0  0  0  0  0  0  0  0  0  0  0
    1.9384  -21.8494    0.0000 C   0  0  0  0  0  0  0  0  0  0  0  0
   -3.2509  -23.3571    0.0000 C   0  0  0  0  0  0  0  0  0  0  0  0
   -0.6525  -23.3418    0.0000 C   0  0  0  0  0  0  0  0  0  0  0  0
   -1.9480  -24.0994    0.0000 N   0  0  0  0  0  0  0  0  0  0  0  0
    3.2415  -24.0994    0.0000 C   0  0  0  0  0  0  0  0  0  0  0  0
    4.5369  -23.3494    0.0000 C   0  0  0  0  0  0  0  0  0  0  0  0
   -4.5464  -24.1071    0.0000 C   0  0  0  0  0  0  0  0  0  0  0  0
    8.4309  -24.0994    0.0000 C   0  0  0  0  0  0  0  0  0  0  0  0
    0.6506  -25.5994    0.0000 O   0  0  0  0  0  0  0  0  0  0  0  0
    5.8400  -24.0994    0.0000 N   0  0  0  0  0  0  0  0  0  0  0  0
    0.6429  -21.0994    0.0000 C   0  0  0  0  0  0  0  0  0  0  0  0
   -3.2585  -21.8571    0.0000 O   0  0  0  0  0  0  0  0  0  0  0  0
    3.2415  -21.0994    0.0000 O   0  0  0  0  0  0  0  0  0  0  0  0
   -0.6676  -21.8494    0.0000 C   0  0  0  0  0  0  0  0  0  0  0  0
   -5.8494  -23.3645    0.0000 C   0  0  0  0  0  0  0  0  0  0  0  0
    4.5369  -21.8494    0.0000 O   0  0  0  0  0  0  0  0  0  0  0  0
    8.4384  -25.5994    0.0000 O   0  0  0  0  0  0  0  0  0  0  0  0
    9.7415  -23.3494    0.0000 O   0  0  0  0  0  0  0  0  0  0  0  0
    7.1355  -23.3494    0.0000 C   0  0  0  0  0  0  0  0  0  0  0  0
   -4.5464  -25.6071    0.0000 N   0  0  0  0  0  0  0  0  0  0  0  0
   11.0369  -24.0994    0.0000 C   0  0  0  0  0  0  0  0  0  0  0  0
   -7.1449  -24.1221    0.0000 C   0  0  0  0  0  0  0  0  0  0  0  0
   12.3324  -23.3494    0.0000 C   0  0  0  0  0  0  0  0  0  0  0  0
   -7.1449  -25.6298    0.0000 C   0  0  0  0  0  0  0  0  0  0  0  0
   -8.4480  -23.3721    0.0000 C   0  0  0  0  0  0  0  0  0  0  0  0
   13.6279  -24.0994    0.0000 C   0  0  0  0  0  0  0  0  0  0  0  0
   12.3324  -21.8571    0.0000 C   0  0  0  0  0  0  0  0  0  0  0  0
   -8.4480  -26.3798    0.0000 C   0  0  0  0  0  0  0  0  0  0  0  0
   14.9309  -23.3571    0.0000 C   0  0  0  0  0  0  0  0  0  0  0  0
   13.6279  -21.0994    0.0000 C   0  0  0  0  0  0  0  0  0  0  0  0
   -9.7434  -24.1221    0.0000 C   0  0  0  0  0  0  0  0  0  0  0  0
   -9.7434  -25.6298    0.0000 C   0  0  0  0  0  0  0  0  0  0  0  0
   14.9309  -21.8571    0.0000 C   0  0  0  0  0  0  0  0  0  0  0  0
  2  1  1  0  0  0  0
  3  1  1  0  0  0  0
  4  6  1  0  0  0  0
  5  2  1  0  0  0  0
  5  6  1  1  0  0  0
  7  1  1  0  0  0  0
  8  7  1  0  0  0  0
  9  4  1  0  0  0  0
 10 21  1  0  0  0  0
 11  2  2  0  0  0  0
 12  8  1  0  0  0  0
 13  3  1  0  0  0  0
 14  4  2  0  0  0  0
 15  3  2  0  0  0  0
 16  5  1  0  0  0  0
 17  9  1  0  0  0  0
 18  8  2  0  0  0  0
 19 10  2  0  0  0  0
 20 10  1  0  0  0  0
 21 12  1  0  0  0  0
  9 22  1  1  0  0  0
 23 20  1  0  0  0  0
 24 17  1  0  0  0  0
 25 23  1  0  0  0  0
 26 24  1  0  0  0  0
 27 24  2  0  0  0  0
 28 25  2  0  0  0  0
 29 25  1  0  0  0  0
 30 26  2  0  0  0  0
 31 28  1  0  0  0  0
 32 29  2  0  0  0  0
 33 27  1  0  0  0  0
 34 33  2  0  0  0  0
 35 32  1  0  0  0  0
 16 13  1  0  0  0  0
 30 34  1  0  0  0  0
 35 31  2  0  0  0  0
M  END
> <Value>
4.871277715661573

> <Relation>
=

> <SourceURI>
mol:CHEMBL1214593

$$$$

Generated by Molecular Materials Informatics

 36 38  0  0  0  0  0  0  0  0999 V2000
   17.8093  -23.1162    0.0000 N   0  0  0  0  0  0  0  0  0  0  0  0
   16.5139  -23.8662    0.0000 C   0  0  0  0  0  0  0  0  0  0  0  0
   17.8093  -21.6162    0.0000 C   0  0  0  0  0  0  0  0  0  0  0  0
   12.6199  -23.1236    0.0000 C   0  0  0  0  0  0  0  0  0  0  0  0
   15.2184  -23.1085    0.0000 C   0  0  0  0  0  0  0  0  0  0  0  0
   13.9230  -23.8662    0.0000 N   0  0  0  0  0  0  0  0  0  0  0  0
   20.4077  -23.1162    0.0000 C   0  0  0  0  0  0  0  0  0  0  0  0
   19.1122  -23.8662    0.0000 C   0  0  0  0  0  0  0  0  0  0  0  0
   24.3017  -23.8662    0.0000 C   0  0  0  0  0  0  0  0  0  0  0  0
   21.7108  -23.8662    0.0000 N   0  0  0  0  0  0  0  0  0  0  0  0
   11.3244  -23.8736    0.0000 C   0  0  0  0  0  0  0  0  0  0  0  0
   23.0062  -23.1162    0.0000 C   0  0  0  0  0  0  0  0  0  0  0  0
   16.5213  -25.3662    0.0000 O   0  0  0  0  0  0  0  0  0  0  0  0
   25.6048  -23.1162    0.0000 O   0  0  0  0  0  0  0  0  0  0  0  0
   16.5139  -20.8662    0.0000 C   0  0  0  0  0  0  0  0  0  0  0  0
   12.6122  -21.6236    0.0000 O   0  0  0  0  0  0  0  0  0  0  0  0
   19.1122  -20.8662    0.0000 O   0  0  0  0  0  0  0  0  0  0  0  0
   15.2031  -21.6162    0.0000 C   0  0  0  0  0  0  0  0  0  0  0  0
   24.3093  -25.3662    0.0000 O   0  0  0  0  0  0  0  0  0  0  0  0
   20.4077  -21.6162    0.0000 O   0  0  0  0  0  0  0  0  0  0  0  0
   10.0213  -23.1313    0.0000 C   0  0  0  0  0  0  0  0  0  0  0  0
   11.3244  -25.3736    0.0000 N   0  0  0  0  0  0  0  0  0  0  0  0
   26.9077  -23.8662    0.0000 C   0  0  0  0  0  0  0  0  0  0  0  0
    8.7259  -23.8889    0.0000 C   0  0  0  0  0  0  0  0  0  0  0  0
   28.2031  -23.1162    0.0000 C   0  0  0  0  0  0  0  0  0  0  0  0
   23.0062  -21.6162    0.0000 C   0  0  0  0  0  0  0  0  0  0  0  0
    7.4230  -23.1389    0.0000 C   0  0  0  0  0  0  0  0  0  0  0  0
    8.7259  -25.3963    0.0000 C   0  0  0  0  0  0  0  0  0  0  0  0
   28.2031  -21.6236    0.0000 C   0  0  0  0  0  0  0  0  0  0  0  0
   29.4986  -23.8662    0.0000 C   0  0  0  0  0  0  0  0  0  0  0  0
   30.8017  -23.1236    0.0000 C   0  0  0  0  0  0  0  0  0  0  0  0
   29.4986  -20.8662    0.0000 C   0  0  0  0  0  0  0  0  0  0  0  0
    6.1275  -23.8889    0.0000 C   0  0  0  0  0  0  0  0  0  0  0  0
    7.4230  -26.1463    0.0000 C   0  0  0  0  0  0  0  0  0  0  0  0
   30.8017  -21.6236    0.0000 C   0  0  0  0  0  0  0  0  0  0  0  0
    6.1275  -25.3963    0.0000 C   0  0  0  0  0  0  0  0  0  0  0  0
  2  1  1  0  0  0  0
  3  1  1  0  0  0  0
  4  6  1  0  0  0  0
  5  2  1  0  0  0  0
  5  6  1  1  0  0  0
  7  8  1  0  0  0  0
  8  1  1  0  0  0  0
  9 12  1  0  0  0  0
 10  7  1  0  0  0  0
 11  4  1  0  0  0  0
 12 10  1  0  0  0  0
 13  2  2  0  0  0  0
 14  9  1  0  0  0  0
 15  3  1  0  0  0  0
 16  4  2  0  0  0  0
 17  3  2  0  0  0  0
 18 15  1  0  0  0  0
 19  9  2  0  0  0  0
 20  7  2  0  0  0  0
 21 11  1  0  0  0  0
 11 22  1  1  0  0  0
 23 14  1  0  0  0  0
 24 21  1  0  0  0  0
 25 23  1  0  0  0  0
 12 26  1  1  0  0  0
 27 24  2  0  0  0  0
 28 24  1  0  0  0  0
 29 25  1  0  0  0  0
 30 25  2  0  0  0  0
 31 30  1  0  0  0  0
 32 29  2  0  0  0  0
 33 27  1  0  0  0  0
 34 28  2  0  0  0  0
 35 32  1  0  0  0  0
 36 33  2  0  0  0  0
 18  5  1  0  0  0  0
 34 36  1  0  0  0  0
 35 31  2  0  0  0  0
M  END
> <Value>
4.038057116858613

> <Relation>
=

> <SourceURI>
mol:CHEMBL1213668

$$$$

Generated by Molecular Materials Informatics

 38 40  0  0  0  0  0  0  0  0999 V2000
    1.6343   -0.1244    0.0000 N   0  0  0  0  0  0  0  0  0  0  0  0
    0.3389   -0.8744    0.0000 C   0  0  0  0  0  0  0  0  0  0  0  0
    1.6343    1.3756    0.0000 C   0  0  0  0  0  0  0  0  0  0  0  0
   -3.5551   -0.1321    0.0000 C   0  0  0  0  0  0  0  0  0  0  0  0
   -0.9566   -0.1168    0.0000 C   0  0  0  0  0  0  0  0  0  0  0  0
   -2.2520   -0.8744    0.0000 N   0  0  0  0  0  0  0  0  0  0  0  0
    4.2327   -0.1244    0.0000 C   0  0  0  0  0  0  0  0  0  0  0  0
    8.1267   -0.8744    0.0000 C   0  0  0  0  0  0  0  0  0  0  0  0
    2.9372   -0.8744    0.0000 C   0  0  0  0  0  0  0  0  0  0  0  0
    6.8312   -0.1244    0.0000 C   0  0  0  0  0  0  0  0  0  0  0  0
    5.5358   -0.8744    0.0000 N   0  0  0  0  0  0  0  0  0  0  0  0
   -4.8506   -0.8821    0.0000 C   0  0  0  0  0  0  0  0  0  0  0  0
    0.3463   -2.3744    0.0000 O   0  0  0  0  0  0  0  0  0  0  0  0
    9.4298   -0.1244    0.0000 O   0  0  0  0  0  0  0  0  0  0  0  0
    0.3389    2.1256    0.0000 C   0  0  0  0  0  0  0  0  0  0  0  0
   -3.5628    1.3679    0.0000 O   0  0  0  0  0  0  0  0  0  0  0  0
    2.9372    2.1256    0.0000 O   0  0  0  0  0  0  0  0  0  0  0  0
   -0.9719    1.3756    0.0000 C   0  0  0  0  0  0  0  0  0  0  0  0
    8.1343   -2.3744    0.0000 O   0  0  0  0  0  0  0  0  0  0  0  0
    4.2327    1.3756    0.0000 O   0  0  0  0  0  0  0  0  0  0  0  0
   -6.1537   -0.1395    0.0000 C   0  0  0  0  0  0  0  0  0  0  0  0
    6.8312    1.3756    0.0000 C   0  0  0  0  0  0  0  0  0  0  0  0
   -4.8506   -2.3821    0.0000 N   0  0  0  0  0  0  0  0  0  0  0  0
   10.7327   -0.8744    0.0000 C   0  0  0  0  0  0  0  0  0  0  0  0
   -7.4491   -0.8971    0.0000 C   0  0  0  0  0  0  0  0  0  0  0  0
   12.0281   -0.1244    0.0000 C   0  0  0  0  0  0  0  0  0  0  0  0
    8.1267    2.1256    0.0000 C   0  0  0  0  0  0  0  0  0  0  0  0
    5.5358    2.1256    0.0000 C   0  0  0  0  0  0  0  0  0  0  0  0
   -8.7520   -0.1471    0.0000 C   0  0  0  0  0  0  0  0  0  0  0  0
   -7.4491   -2.4048    0.0000 C   0  0  0  0  0  0  0  0  0  0  0  0
   12.0281    1.3679    0.0000 C   0  0  0  0  0  0  0  0  0  0  0  0
   13.3236   -0.8744    0.0000 C   0  0  0  0  0  0  0  0  0  0  0  0
  -10.0475   -0.8971    0.0000 C   0  0  0  0  0  0  0  0  0  0  0  0
   -8.7520   -3.1548    0.0000 C   0  0  0  0  0  0  0  0  0  0  0  0
   14.6267   -0.1321    0.0000 C   0  0  0  0  0  0  0  0  0  0  0  0
   13.3236    2.1256    0.0000 C   0  0  0  0  0  0  0  0  0  0  0  0
   14.6267    1.3679    0.0000 C   0  0  0  0  0  0  0  0  0  0  0  0
  -10.0475   -2.4048    0.0000 C   0  0  0  0  0  0  0  0  0  0  0  0
  2  1  1  0  0  0  0
  3  1  1  0  0  0  0
  4  6  1  0  0  0  0
  5  2  1  0  0  0  0
  5  6  1  1  0  0  0
  7  9  1  0  0  0  0
  8 10  1  0  0  0  0
  9  1  1  0  0  0  0
 10 11  1  0  0  0  0
 11  7  1  0  0  0  0
 12  4  1  0  0  0  0
 13  2  2  0  0  0  0
 14  8  1  0  0  0  0
 15  3  1  0  0  0  0
 16  4  2  0  0  0  0
 17  3  2  0  0  0  0
 18 15  1  0  0  0  0
 19  8  2  0  0  0  0
 20  7  2  0  0  0  0
 21 12  1  0  0  0  0
 10 22  1  1  0  0  0
 12 23  1  1  0  0  0
 24 14  1  0  0  0  0
 25 21  1  0  0  0  0
 26 24  1  0  0  0  0
 27 22  1  0  0  0  0
 28 22  1  0  0  0  0
 29 25  2  0  0  0  0
 30 25  1  0  0  0  0
 31 26  1  0  0  0  0
 32 26  2  0  0  0  0
 33 29  1  0  0  0  0
 34 30  2  0  0  0  0
 35 32  1  0  0  0  0
 36 31  2  0  0  0  0
 37 36  1  0  0  0  0
 38 33  2  0  0  0  0
 18  5  1  0  0  0  0
 34 38  1  0  0  0  0
 37 35  2  0  0  0  0
M  END
> <Value>
4.520856752021387

> <Relation>
=

> <SourceURI>
mol:CHEMBL1213669

$$$$

Generated by Molecular Materials Informatics

 39 41  0  0  0  0  0  0  0  0999 V2000
   17.1509   -0.2412    0.0000 N   0  0  0  0  0  0  0  0  0  0  0  0
   15.8631   -0.9912    0.0000 C   0  0  0  0  0  0  0  0  0  0  0  0
   17.1509    1.2588    0.0000 C   0  0  0  0  0  0  0  0  0  0  0  0
   11.9616   -0.2486    0.0000 C   0  0  0  0  0  0  0  0  0  0  0  0
   14.5600   -0.2335    0.0000 C   0  0  0  0  0  0  0  0  0  0  0  0
   13.2645   -0.9912    0.0000 N   0  0  0  0  0  0  0  0  0  0  0  0
   19.7494   -0.2412    0.0000 C   0  0  0  0  0  0  0  0  0  0  0  0
   23.6434   -0.9912    0.0000 C   0  0  0  0  0  0  0  0  0  0  0  0
   18.4540   -0.9912    0.0000 C   0  0  0  0  0  0  0  0  0  0  0  0
   21.0525   -0.9912    0.0000 N   0  0  0  0  0  0  0  0  0  0  0  0
   22.3480   -0.2412    0.0000 C   0  0  0  0  0  0  0  0  0  0  0  0
   10.6662   -0.9986    0.0000 C   0  0  0  0  0  0  0  0  0  0  0  0
   15.8631   -2.4912    0.0000 O   0  0  0  0  0  0  0  0  0  0  0  0
   24.9540   -0.2412    0.0000 O   0  0  0  0  0  0  0  0  0  0  0  0
   15.8554    2.0088    0.0000 C   0  0  0  0  0  0  0  0  0  0  0  0
   11.9540    1.2514    0.0000 O   0  0  0  0  0  0  0  0  0  0  0  0
   18.4540    2.0088    0.0000 O   0  0  0  0  0  0  0  0  0  0  0  0
   14.5449    1.2588    0.0000 C   0  0  0  0  0  0  0  0  0  0  0  0
   23.6509   -2.4912    0.0000 O   0  0  0  0  0  0  0  0  0  0  0  0
   19.7494    1.2588    0.0000 O   0  0  0  0  0  0  0  0  0  0  0  0
   22.3480    1.2588    0.0000 C   0  0  0  0  0  0  0  0  0  0  0  0
    9.3631   -0.2562    0.0000 C   0  0  0  0  0  0  0  0  0  0  0  0
   10.6662   -2.4986    0.0000 N   0  0  0  0  0  0  0  0  0  0  0  0
   26.2494   -0.9912    0.0000 C   0  0  0  0  0  0  0  0  0  0  0  0
    8.0676   -1.0139    0.0000 C   0  0  0  0  0  0  0  0  0  0  0  0
   27.5449   -0.2412    0.0000 C   0  0  0  0  0  0  0  0  0  0  0  0
   23.6434    2.0088    0.0000 C   0  0  0  0  0  0  0  0  0  0  0  0
    8.0676   -2.5213    0.0000 C   0  0  0  0  0  0  0  0  0  0  0  0
    6.7645   -0.2639    0.0000 C   0  0  0  0  0  0  0  0  0  0  0  0
   28.8403   -0.9912    0.0000 C   0  0  0  0  0  0  0  0  0  0  0  0
   27.5449    1.2514    0.0000 C   0  0  0  0  0  0  0  0  0  0  0  0
   24.9463    1.2588    0.0000 C   0  0  0  0  0  0  0  0  0  0  0  0
   23.6434    3.5088    0.0000 C   0  0  0  0  0  0  0  0  0  0  0  0
    6.7645   -3.2713    0.0000 C   0  0  0  0  0  0  0  0  0  0  0  0
   30.1434   -0.2486    0.0000 C   0  0  0  0  0  0  0  0  0  0  0  0
   28.8403    2.0088    0.0000 C   0  0  0  0  0  0  0  0  0  0  0  0
    5.4691   -1.0139    0.0000 C   0  0  0  0  0  0  0  0  0  0  0  0
    5.4691   -2.5213    0.0000 C   0  0  0  0  0  0  0  0  0  0  0  0
   30.1434    1.2514    0.0000 C   0  0  0  0  0  0  0  0  0  0  0  0
  2  1  1  0  0  0  0
  3  1  1  0  0  0  0
  4  6  1  0  0  0  0
  5  2  1  0  0  0  0
  5  6  1  1  0  0  0
  7  9  1  0  0  0  0
  8 11  1  0  0  0  0
  9  1  1  0  0  0  0
 10  7  1  0  0  0  0
 11 10  1  0  0  0  0
 12  4  1  0  0  0  0
 13  2  2  0  0  0  0
 14  8  1  0  0  0  0
 15  3  1  0  0  0  0
 16  4  2  0  0  0  0
 17  3  2  0  0  0  0
 18 15  1  0  0  0  0
 19  8  2  0  0  0  0
 20  7  2  0  0  0  0
 11 21  1  1  0  0  0
 22 12  1  0  0  0  0
 12 23  1  1  0  0  0
 24 14  1  0  0  0  0
 25 22  1  0  0  0  0
 26 24  1  0  0  0  0
 27 21  1  0  0  0  0
 28 25  1  0  0  0  0
 29 25  2  0  0  0  0
 30 26  2  0  0  0  0
 31 26  1  0  0  0  0
 32 27  1  0  0  0  0
 33 27  1  0  0  0  0
 34 28  2  0  0  0  0
 35 30  1  0  0  0  0
 36 31  2  0  0  0  0
 37 29  1  0  0  0  0
 38 37  2  0  0  0  0
 39 36  1  0  0  0  0
 18  5  1  0  0  0  0
 34 38  1  0  0  0  0
 39 35  2  0  0  0  0
M  END
> <Value>
4.5204246898250116

> <Relation>
=

> <SourceURI>
mol:CHEMBL1213670

$$$$

Generated by Molecular Materials Informatics

 36 38  0  0  0  0  0  0  0  0999 V2000
    5.0541   -2.6547    0.0000 N   0  0  0  0  0  0  0  0  0  0  0  0
    3.7660   -3.4350    0.0000 C   0  0  0  0  0  0  0  0  0  0  0  0
    5.0161   -1.1546    0.0000 C   0  0  0  0  0  0  0  0  0  0  0  0
   -0.1434   -2.7684    0.0000 C   0  0  0  0  0  0  0  0  0  0  0  0
    2.4554   -2.7153    0.0000 C   0  0  0  0  0  0  0  0  0  0  0  0
    1.1749   -3.4881    0.0000 N   0  0  0  0  0  0  0  0  0  0  0  0
    6.3724   -3.3594    0.0000 C   0  0  0  0  0  0  0  0  0  0  0  0
    7.6527   -2.5940    0.0000 C   0  0  0  0  0  0  0  0  0  0  0  0
   12.8881   -2.6395    0.0000 C   0  0  0  0  0  0  0  0  0  0  0  0
   -1.4237   -3.5412    0.0000 C   0  0  0  0  0  0  0  0  0  0  0  0
    3.8040   -4.9277    0.0000 O   0  0  0  0  0  0  0  0  0  0  0  0
    3.7055   -0.4273    0.0000 C   0  0  0  0  0  0  0  0  0  0  0  0
   -0.1812   -1.2757    0.0000 O   0  0  0  0  0  0  0  0  0  0  0  0
    6.3042   -0.3742    0.0000 O   0  0  0  0  0  0  0  0  0  0  0  0
   11.5698   -3.3594    0.0000 C   0  0  0  0  0  0  0  0  0  0  0  0
    2.4175   -1.2152    0.0000 C   0  0  0  0  0  0  0  0  0  0  0  0
   -2.8329   -3.0184    0.0000 C   0  0  0  0  0  0  0  0  0  0  0  0
   12.9259   -1.1319    0.0000 O   0  0  0  0  0  0  0  0  0  0  0  0
    7.6073   -1.0939    0.0000 O   0  0  0  0  0  0  0  0  0  0  0  0
   14.1760   -3.4199    0.0000 O   0  0  0  0  0  0  0  0  0  0  0  0
    8.9787   -3.2912    0.0000 N   0  0  0  0  0  0  0  0  0  0  0  0
   -1.4314   -5.0413    0.0000 N   0  0  0  0  0  0  0  0  0  0  0  0
   10.2893   -2.5713    0.0000 C   0  0  0  0  0  0  0  0  0  0  0  0
   15.4869   -2.7002    0.0000 C   0  0  0  0  0  0  0  0  0  0  0  0
   -4.1361   -3.7608    0.0000 C   0  0  0  0  0  0  0  0  0  0  0  0
   16.7672   -3.4805    0.0000 C   0  0  0  0  0  0  0  0  0  0  0  0
   -5.4317   -2.9881    0.0000 C   0  0  0  0  0  0  0  0  0  0  0  0
   -4.1512   -5.2459    0.0000 C   0  0  0  0  0  0  0  0  0  0  0  0
   18.0780   -2.7608    0.0000 C   0  0  0  0  0  0  0  0  0  0  0  0
   16.7293   -4.9806    0.0000 C   0  0  0  0  0  0  0  0  0  0  0  0
   18.0098   -5.7610    0.0000 C   0  0  0  0  0  0  0  0  0  0  0  0
   -6.7349   -3.7230    0.0000 C   0  0  0  0  0  0  0  0  0  0  0  0
   -5.4544   -5.9883    0.0000 C   0  0  0  0  0  0  0  0  0  0  0  0
   19.3583   -3.5336    0.0000 C   0  0  0  0  0  0  0  0  0  0  0  0
   19.3281   -5.0413    0.0000 C   0  0  0  0  0  0  0  0  0  0  0  0
   -6.7500   -5.2232    0.0000 C   0  0  0  0  0  0  0  0  0  0  0  0
  2  1  1  0  0  0  0
  3  1  1  0  0  0  0
  4  6  1  0  0  0  0
  5  2  1  0  0  0  0
  5  6  1  1  0  0  0
  7  1  1  0  0  0  0
  8  7  1  0  0  0  0
  9 15  1  0  0  0  0
 10  4  1  0  0  0  0
 11  2  2  0  0  0  0
 12  3  1  0  0  0  0
 13  4  2  0  0  0  0
 14  3  2  0  0  0  0
 15 23  1  0  0  0  0
 16 12  1  0  0  0  0
 17 10  1  0  0  0  0
 18  9  2  0  0  0  0
 19  8  2  0  0  0  0
 20  9  1  0  0  0  0
 21  8  1  0  0  0  0
 10 22  1  6  0  0  0
 23 21  1  0  0  0  0
 24 20  1  0  0  0  0
 25 17  1  0  0  0  0
 26 24  1  0  0  0  0
 27 25  2  0  0  0  0
 28 25  1  0  0  0  0
 29 26  1  0  0  0  0
 30 26  2  0  0  0  0
 31 30  1  0  0  0  0
 32 27  1  0  0  0  0
 33 28  2  0  0  0  0
 34 29  2  0  0  0  0
 35 34  1  0  0  0  0
 36 33  1  0  0  0  0
 16  5  1  0  0  0  0
 36 32  2  0  0  0  0
 35 31  2  0  0  0  0
M  END
> <Value>
4.303643611266668

> <Relation>
=

> <SourceURI>
mol:CHEMBL1213671

$$$$

Generated by Molecular Materials Informatics

 42 45  0  0  0  0  0  0  0  0999 V2000
    1.5009  -13.0724    0.0000 N   0  0  0  0  0  0  0  0  0  0  0  0
    0.2131  -13.8224    0.0000 C   0  0  0  0  0  0  0  0  0  0  0  0
    1.5009  -11.5724    0.0000 C   0  0  0  0  0  0  0  0  0  0  0  0
   -3.6884  -13.0799    0.0000 C   0  0  0  0  0  0  0  0  0  0  0  0
   -1.0900  -13.0648    0.0000 C   0  0  0  0  0  0  0  0  0  0  0  0
   -2.3855  -13.8224    0.0000 N   0  0  0  0  0  0  0  0  0  0  0  0
    4.0994  -13.0724    0.0000 C   0  0  0  0  0  0  0  0  0  0  0  0
    7.9934  -13.8224    0.0000 C   0  0  0  0  0  0  0  0  0  0  0  0
    2.8040  -13.8224    0.0000 C   0  0  0  0  0  0  0  0  0  0  0  0
    5.4025  -13.8224    0.0000 N   0  0  0  0  0  0  0  0  0  0  0  0
    6.6980  -13.0724    0.0000 C   0  0  0  0  0  0  0  0  0  0  0  0
   -4.9838  -13.8299    0.0000 C   0  0  0  0  0  0  0  0  0  0  0  0
    0.2131  -15.3224    0.0000 O   0  0  0  0  0  0  0  0  0  0  0  0
    9.3040  -13.0724    0.0000 O   0  0  0  0  0  0  0  0  0  0  0  0
    0.2054  -10.8224    0.0000 C   0  0  0  0  0  0  0  0  0  0  0  0
   -3.6960  -11.5799    0.0000 O   0  0  0  0  0  0  0  0  0  0  0  0
    2.8040  -10.8224    0.0000 O   0  0  0  0  0  0  0  0  0  0  0  0
    6.6980  -11.5724    0.0000 C   0  0  0  0  0  0  0  0  0  0  0  0
   -1.1051  -11.5724    0.0000 C   0  0  0  0  0  0  0  0  0  0  0  0
    8.0009  -15.3224    0.0000 O   0  0  0  0  0  0  0  0  0  0  0  0
    4.0994  -11.5724    0.0000 O   0  0  0  0  0  0  0  0  0  0  0  0
   -6.2869  -13.0875    0.0000 C   0  0  0  0  0  0  0  0  0  0  0  0
   -4.9838  -15.3299    0.0000 N   0  0  0  0  0  0  0  0  0  0  0  0
   10.5994  -13.8224    0.0000 C   0  0  0  0  0  0  0  0  0  0  0  0
    7.9934  -10.8224    0.0000 C   0  0  0  0  0  0  0  0  0  0  0  0
   -7.5824  -13.8451    0.0000 C   0  0  0  0  0  0  0  0  0  0  0  0
   11.8949  -13.0724    0.0000 C   0  0  0  0  0  0  0  0  0  0  0  0
   -7.5824  -15.3526    0.0000 C   0  0  0  0  0  0  0  0  0  0  0  0
   -8.8855  -13.0951    0.0000 C   0  0  0  0  0  0  0  0  0  0  0  0
    9.2963  -11.5724    0.0000 C   0  0  0  0  0  0  0  0  0  0  0  0
    7.9934   -9.3299    0.0000 C   0  0  0  0  0  0  0  0  0  0  0  0
   13.1903  -13.8224    0.0000 C   0  0  0  0  0  0  0  0  0  0  0  0
   11.8949  -11.5799    0.0000 C   0  0  0  0  0  0  0  0  0  0  0  0
   -8.8855  -16.1026    0.0000 C   0  0  0  0  0  0  0  0  0  0  0  0
   14.4934  -13.0799    0.0000 C   0  0  0  0  0  0  0  0  0  0  0  0
   13.1903  -10.8224    0.0000 C   0  0  0  0  0  0  0  0  0  0  0  0
   10.5918  -10.8224    0.0000 C   0  0  0  0  0  0  0  0  0  0  0  0
    9.2813   -8.5724    0.0000 C   0  0  0  0  0  0  0  0  0  0  0  0
  -10.1809  -13.8451    0.0000 C   0  0  0  0  0  0  0  0  0  0  0  0
   10.5918   -9.3224    0.0000 C   0  0  0  0  0  0  0  0  0  0  0  0
  -10.1809  -15.3526    0.0000 C   0  0  0  0  0  0  0  0  0  0  0  0
   14.4934  -11.5799    0.0000 C   0  0  0  0  0  0  0  0  0  0  0  0
  2  1  1  0  0  0  0
  3  1  1  0  0  0  0
  4  6  1  0  0  0  0
  5  2  1  0  0  0  0
  5  6  1  1  0  0  0
  7  9  1  0  0  0  0
  8 11  1  0  0  0  0
  9  1  1  0  0  0  0
 10  7  1  0  0  0  0
 11 10  1  0  0  0  0
 12  4  1  0  0  0  0
 13  2  2  0  0  0  0
 14  8  1  0  0  0  0
 15  3  1  0  0  0  0
 16  4  2  0  0  0  0
 17  3  2  0  0  0  0
 11 18  1  1  0  0  0
 19 15  1  0  0  0  0
 20  8  2  0  0  0  0
 21  7  2  0  0  0  0
 22 12  1  0  0  0  0
 12 23  1  1  0  0  0
 24 14  1  0  0  0  0
 25 18  1  0  0  0  0
 26 22  1  0  0  0  0
 27 24  1  0  0  0  0
 28 26  1  0  0  0  0
 29 26  2  0  0  0  0
 30 25  2  0  0  0  0
 31 25  1  0  0  0  0
 32 27  2  0  0  0  0
 33 27  1  0  0  0  0
 34 28  2  0  0  0  0
 35 32  1  0  0  0  0
 36 33  2  0  0  0  0
 37 30  1  0  0  0  0
 38 31  2  0  0  0  0
 39 29  1  0  0  0  0
 40 38  1  0  0  0  0
 41 34  1  0  0  0  0
 42 36  1  0  0  0  0
 19  5  1  0  0  0  0
 40 37  2  0  0  0  0
 41 39  2  0  0  0  0
 42 35  2  0  0  0  0
M  END
> <Value>
5.188424994129407

> <Relation>
=

> <SourceURI>
mol:CHEMBL1213672

$$$$

Generated by Molecular Materials Informatics

 47 50  0  0  0  0  0  0  0  0999 V2000
   17.8384  -12.6136    0.0000 N   0  0  0  0  0  0  0  0  0  0  0  0
   16.5506  -13.3636    0.0000 C   0  0  0  0  0  0  0  0  0  0  0  0
   17.8384  -11.1136    0.0000 C   0  0  0  0  0  0  0  0  0  0  0  0
   12.6491  -12.6213    0.0000 C   0  0  0  0  0  0  0  0  0  0  0  0
   15.2475  -12.6060    0.0000 C   0  0  0  0  0  0  0  0  0  0  0  0
   13.9520  -13.3636    0.0000 N   0  0  0  0  0  0  0  0  0  0  0  0
   20.4369  -12.6136    0.0000 C   0  0  0  0  0  0  0  0  0  0  0  0
   19.1415  -13.3636    0.0000 C   0  0  0  0  0  0  0  0  0  0  0  0
   24.3309  -13.3636    0.0000 C   0  0  0  0  0  0  0  0  0  0  0  0
   21.7400  -13.3636    0.0000 N   0  0  0  0  0  0  0  0  0  0  0  0
   23.0355  -12.6136    0.0000 C   0  0  0  0  0  0  0  0  0  0  0  0
   11.3537  -13.3713    0.0000 C   0  0  0  0  0  0  0  0  0  0  0  0
   24.3309   -8.8713    0.0000 C   0  0  0  0  0  0  0  0  0  0  0  0
   16.5506  -14.8636    0.0000 O   0  0  0  0  0  0  0  0  0  0  0  0
   25.6415  -12.6136    0.0000 O   0  0  0  0  0  0  0  0  0  0  0  0
   16.5429  -10.3636    0.0000 C   0  0  0  0  0  0  0  0  0  0  0  0
   12.6415  -11.1213    0.0000 O   0  0  0  0  0  0  0  0  0  0  0  0
   19.1415  -10.3636    0.0000 O   0  0  0  0  0  0  0  0  0  0  0  0
   15.2324  -11.1136    0.0000 C   0  0  0  0  0  0  0  0  0  0  0  0
   24.3384  -14.8636    0.0000 O   0  0  0  0  0  0  0  0  0  0  0  0
   20.4369  -11.1136    0.0000 O   0  0  0  0  0  0  0  0  0  0  0  0
   10.0506  -12.6287    0.0000 C   0  0  0  0  0  0  0  0  0  0  0  0
   23.0355   -8.1287    0.0000 O   0  0  0  0  0  0  0  0  0  0  0  0
   25.6188   -8.1136    0.0000 O   0  0  0  0  0  0  0  0  0  0  0  0
   23.0355  -11.1136    0.0000 C   0  0  0  0  0  0  0  0  0  0  0  0
   24.3309  -10.3636    0.0000 C   0  0  0  0  0  0  0  0  0  0  0  0
   11.3537  -14.8713    0.0000 N   0  0  0  0  0  0  0  0  0  0  0  0
   26.9369  -13.3636    0.0000 C   0  0  0  0  0  0  0  0  0  0  0  0
   26.9218   -8.8636    0.0000 C   0  0  0  0  0  0  0  0  0  0  0  0
    8.7551  -13.3864    0.0000 C   0  0  0  0  0  0  0  0  0  0  0  0
   28.2324  -12.6136    0.0000 C   0  0  0  0  0  0  0  0  0  0  0  0
   28.2173   -8.1060    0.0000 C   0  0  0  0  0  0  0  0  0  0  0  0
    7.4520  -12.6364    0.0000 C   0  0  0  0  0  0  0  0  0  0  0  0
    8.7551  -14.8940    0.0000 C   0  0  0  0  0  0  0  0  0  0  0  0
   28.2324  -11.1213    0.0000 C   0  0  0  0  0  0  0  0  0  0  0  0
   29.5278  -13.3636    0.0000 C   0  0  0  0  0  0  0  0  0  0  0  0
   29.5128   -8.8560    0.0000 C   0  0  0  0  0  0  0  0  0  0  0  0
   28.2020   -6.6136    0.0000 C   0  0  0  0  0  0  0  0  0  0  0  0
   30.8309  -12.6213    0.0000 C   0  0  0  0  0  0  0  0  0  0  0  0
   29.5278  -10.3636    0.0000 C   0  0  0  0  0  0  0  0  0  0  0  0
    6.1566  -13.3864    0.0000 C   0  0  0  0  0  0  0  0  0  0  0  0
   30.8082   -8.1060    0.0000 C   0  0  0  0  0  0  0  0  0  0  0  0
   29.4900   -5.8560    0.0000 C   0  0  0  0  0  0  0  0  0  0  0  0
    7.4520  -15.6440    0.0000 C   0  0  0  0  0  0  0  0  0  0  0  0
   30.8006   -6.6060    0.0000 C   0  0  0  0  0  0  0  0  0  0  0  0
   30.8309  -11.1213    0.0000 C   0  0  0  0  0  0  0  0  0  0  0  0
    6.1566  -14.8940    0.0000 C   0  0  0  0  0  0  0  0  0  0  0  0
  2  1  1  0  0  0  0
  3  1  1  0  0  0  0
  4  6  1  0  0  0  0
  5  2  1  0  0  0  0
  5  6  1  1  0  0  0
  7  8  1  0  0  0  0
  8  1  1  0  0  0  0
  9 11  1  0  0  0  0
 10  7  1  0  0  0  0
 11 10  1  0  0  0  0
 12  4  1  0  0  0  0
 13 26  1  0  0  0  0
 14  2  2  0  0  0  0
 15  9  1  0  0  0  0
 16  3  1  0  0  0  0
 17  4  2  0  0  0  0
 18  3  2  0  0  0  0
 19 16  1  0  0  0  0
 20  9  2  0  0  0  0
 21  7  2  0  0  0  0
 22 12  1  0  0  0  0
 23 13  2  0  0  0  0
 24 13  1  0  0  0  0
 11 25  1  1  0  0  0
 26 25  1  0  0  0  0
 12 27  1  1  0  0  0
 28 15  1  0  0  0  0
 29 24  1  0  0  0  0
 30 22  1  0  0  0  0
 31 28  1  0  0  0  0
 32 29  1  0  0  0  0
 33 30  2  0  0  0  0
 34 30  1  0  0  0  0
 35 31  1  0  0  0  0
 36 31  2  0  0  0  0
 37 32  2  0  0  0  0
 38 32  1  0  0  0  0
 39 36  1  0  0  0  0
 40 35  2  0  0  0  0
 41 33  1  0  0  0  0
 42 37  1  0  0  0  0
 43 38  2  0  0  0  0
 44 34  2  0  0  0  0
 45 43  1  0  0  0  0
 46 40  1  0  0  0  0
 47 44  1  0  0  0  0
 19  5  1  0  0  0  0
 47 41  2  0  0  0  0
 46 39  2  0  0  0  0
 45 42  2  0  0  0  0
M  END
> <Value>
4.039243909098227

> <Relation>
=

> <SourceURI>
mol:CHEMBL1213731

$$$$

Generated by Molecular Materials Informatics

 28 29  0  0  0  0  0  0  0  0999 V2000
    2.9852  -18.2537    0.0000 N   0  0  0  0  0  0  0  0  0  0  0  0
    1.6898  -19.0037    0.0000 C   0  0  0  0  0  0  0  0  0  0  0  0
    2.9852  -16.7537    0.0000 C   0  0  0  0  0  0  0  0  0  0  0  0
   -2.2042  -18.2611    0.0000 C   0  0  0  0  0  0  0  0  0  0  0  0
    0.3943  -18.2460    0.0000 C   0  0  0  0  0  0  0  0  0  0  0  0
   -0.9011  -19.0037    0.0000 N   0  0  0  0  0  0  0  0  0  0  0  0
    4.2883  -19.0037    0.0000 C   0  0  0  0  0  0  0  0  0  0  0  0
    5.5837  -18.2537    0.0000 C   0  0  0  0  0  0  0  0  0  0  0  0
   -3.4996  -19.0111    0.0000 C   0  0  0  0  0  0  0  0  0  0  0  0
    1.6974  -20.5036    0.0000 O   0  0  0  0  0  0  0  0  0  0  0  0
    9.4775  -19.0037    0.0000 C   0  0  0  0  0  0  0  0  0  0  0  0
    6.8791  -19.0037    0.0000 N   0  0  0  0  0  0  0  0  0  0  0  0
    1.6898  -16.0037    0.0000 C   0  0  0  0  0  0  0  0  0  0  0  0
   -2.2117  -16.7611    0.0000 O   0  0  0  0  0  0  0  0  0  0  0  0
    4.2883  -16.0037    0.0000 O   0  0  0  0  0  0  0  0  0  0  0  0
    0.3792  -16.7537    0.0000 C   0  0  0  0  0  0  0  0  0  0  0  0
   -4.8025  -18.2688    0.0000 C   0  0  0  0  0  0  0  0  0  0  0  0
    5.5837  -16.7537    0.0000 O   0  0  0  0  0  0  0  0  0  0  0  0
    9.4851  -20.5036    0.0000 O   0  0  0  0  0  0  0  0  0  0  0  0
    8.1820  -18.2537    0.0000 C   0  0  0  0  0  0  0  0  0  0  0  0
   -3.4996  -20.5111    0.0000 N   0  0  0  0  0  0  0  0  0  0  0  0
   10.7882  -18.2537    0.0000 O   0  0  0  0  0  0  0  0  0  0  0  0
   -6.0980  -19.0264    0.0000 C   0  0  0  0  0  0  0  0  0  0  0  0
   -6.0980  -20.5338    0.0000 C   0  0  0  0  0  0  0  0  0  0  0  0
   -7.4010  -18.2764    0.0000 C   0  0  0  0  0  0  0  0  0  0  0  0
   -7.4010  -21.2838    0.0000 C   0  0  0  0  0  0  0  0  0  0  0  0
   -8.6965  -19.0264    0.0000 C   0  0  0  0  0  0  0  0  0  0  0  0
   -8.6965  -20.5338    0.0000 C   0  0  0  0  0  0  0  0  0  0  0  0
  2  1  1  0  0  0  0
  3  1  1  0  0  0  0
  4  6  1  0  0  0  0
  5  2  1  0  0  0  0
  5  6  1  1  0  0  0
  7  1  1  0  0  0  0
  8  7  1  0  0  0  0
  9  4  1  0  0  0  0
 10  2  2  0  0  0  0
 11 20  1  0  0  0  0
 12  8  1  0  0  0  0
 13  3  1  0  0  0  0
 14  4  2  0  0  0  0
 15  3  2  0  0  0  0
 16 13  1  0  0  0  0
 17  9  1  0  0  0  0
 18  8  2  0  0  0  0
 19 11  2  0  0  0  0
 20 12  1  0  0  0  0
  9 21  1  1  0  0  0
 22 11  1  0  0  0  0
 23 17  1  0  0  0  0
 24 23  1  0  0  0  0
 25 23  2  0  0  0  0
 26 24  2  0  0  0  0
 27 25  1  0  0  0  0
 28 27  2  0  0  0  0
 16  5  1  0  0  0  0
 26 28  1  0  0  0  0
M  END
> <Value>
4.411840383616908

> <Relation>
=

> <SourceURI>
mol:CHEMBL1213732

$$$$

Generated by Molecular Materials Informatics

 29 30  0  0  0  0  0  0  0  0999 V2000
   18.1602  -17.2119    0.0000 N   0  0  0  0  0  0  0  0  0  0  0  0
   16.8648  -17.9619    0.0000 C   0  0  0  0  0  0  0  0  0  0  0  0
   18.1602  -15.7119    0.0000 C   0  0  0  0  0  0  0  0  0  0  0  0
   12.9708  -17.2196    0.0000 C   0  0  0  0  0  0  0  0  0  0  0  0
   15.5693  -17.2043    0.0000 C   0  0  0  0  0  0  0  0  0  0  0  0
   14.2739  -17.9619    0.0000 N   0  0  0  0  0  0  0  0  0  0  0  0
   20.7587  -17.2119    0.0000 C   0  0  0  0  0  0  0  0  0  0  0  0
   19.4633  -17.9619    0.0000 C   0  0  0  0  0  0  0  0  0  0  0  0
   22.0542  -17.9619    0.0000 N   0  0  0  0  0  0  0  0  0  0  0  0
   24.6525  -17.9619    0.0000 C   0  0  0  0  0  0  0  0  0  0  0  0
   11.6753  -17.9696    0.0000 C   0  0  0  0  0  0  0  0  0  0  0  0
   23.3571  -17.2119    0.0000 C   0  0  0  0  0  0  0  0  0  0  0  0
   16.8724  -19.4619    0.0000 O   0  0  0  0  0  0  0  0  0  0  0  0
   16.8648  -14.9619    0.0000 C   0  0  0  0  0  0  0  0  0  0  0  0
   12.9633  -15.7196    0.0000 O   0  0  0  0  0  0  0  0  0  0  0  0
   19.4633  -14.9619    0.0000 O   0  0  0  0  0  0  0  0  0  0  0  0
   15.5542  -15.7119    0.0000 C   0  0  0  0  0  0  0  0  0  0  0  0
   20.7587  -15.7119    0.0000 O   0  0  0  0  0  0  0  0  0  0  0  0
   24.6602  -19.4619    0.0000 O   0  0  0  0  0  0  0  0  0  0  0  0
   10.3724  -17.2270    0.0000 C   0  0  0  0  0  0  0  0  0  0  0  0
   11.6753  -19.4695    0.0000 N   0  0  0  0  0  0  0  0  0  0  0  0
   25.9632  -17.2119    0.0000 O   0  0  0  0  0  0  0  0  0  0  0  0
    9.0770  -17.9846    0.0000 C   0  0  0  0  0  0  0  0  0  0  0  0
   23.3571  -15.7119    0.0000 C   0  0  0  0  0  0  0  0  0  0  0  0
    7.7739  -17.2346    0.0000 C   0  0  0  0  0  0  0  0  0  0  0  0
    9.0770  -19.4923    0.0000 C   0  0  0  0  0  0  0  0  0  0  0  0
    6.4785  -17.9846    0.0000 C   0  0  0  0  0  0  0  0  0  0  0  0
    7.7739  -20.2423    0.0000 C   0  0  0  0  0  0  0  0  0  0  0  0
    6.4785  -19.4923    0.0000 C   0  0  0  0  0  0  0  0  0  0  0  0
  2  1  1  0  0  0  0
  3  1  1  0  0  0  0
  4  6  1  0  0  0  0
  5  2  1  0  0  0  0
  5  6  1  1  0  0  0
  7  8  1  0  0  0  0
  8  1  1  0  0  0  0
  9  7  1  0  0  0  0
 10 12  1  0  0  0  0
 11  4  1  0  0  0  0
 12  9  1  0  0  0  0
 13  2  2  0  0  0  0
 14  3  1  0  0  0  0
 15  4  2  0  0  0  0
 16  3  2  0  0  0  0
 17 14  1  0  0  0  0
 18  7  2  0  0  0  0
 19 10  2  0  0  0  0
 20 11  1  0  0  0  0
 11 21  1  1  0  0  0
 22 10  1  0  0  0  0
 23 20  1  0  0  0  0
 12 24  1  1  0  0  0
 25 23  2  0  0  0  0
 26 23  1  0  0  0  0
 27 25  1  0  0  0  0
 28 26  2  0  0  0  0
 29 27  2  0  0  0  0
 17  5  1  0  0  0  0
 28 29  1  0  0  0  0
M  END
> <Value>
3.959239475771301

> <Relation>
=

> <SourceURI>
mol:CHEMBL1213733

$$$$

Generated by Molecular Materials Informatics

 31 32  0  0  0  0  0  0  0  0999 V2000
    2.5536  -23.9702    0.0000 N   0  0  0  0  0  0  0  0  0  0  0  0
    1.2582  -24.7128    0.0000 C   0  0  0  0  0  0  0  0  0  0  0  0
    2.5536  -22.4702    0.0000 C   0  0  0  0  0  0  0  0  0  0  0  0
   -2.6358  -23.9779    0.0000 C   0  0  0  0  0  0  0  0  0  0  0  0
   -0.0373  -23.9628    0.0000 C   0  0  0  0  0  0  0  0  0  0  0  0
   -1.3327  -24.7202    0.0000 N   0  0  0  0  0  0  0  0  0  0  0  0
    5.1520  -23.9702    0.0000 C   0  0  0  0  0  0  0  0  0  0  0  0
    3.8565  -24.7202    0.0000 C   0  0  0  0  0  0  0  0  0  0  0  0
    7.7506  -23.9702    0.0000 C   0  0  0  0  0  0  0  0  0  0  0  0
    6.4551  -24.7202    0.0000 N   0  0  0  0  0  0  0  0  0  0  0  0
    9.0460  -24.7202    0.0000 C   0  0  0  0  0  0  0  0  0  0  0  0
   -3.9313  -24.7279    0.0000 C   0  0  0  0  0  0  0  0  0  0  0  0
    1.2656  -26.2128    0.0000 O   0  0  0  0  0  0  0  0  0  0  0  0
    1.2582  -21.7202    0.0000 C   0  0  0  0  0  0  0  0  0  0  0  0
   -2.6435  -22.4779    0.0000 O   0  0  0  0  0  0  0  0  0  0  0  0
    3.8565  -21.7202    0.0000 O   0  0  0  0  0  0  0  0  0  0  0  0
   -0.0526  -22.4702    0.0000 C   0  0  0  0  0  0  0  0  0  0  0  0
    9.0536  -26.2202    0.0000 O   0  0  0  0  0  0  0  0  0  0  0  0
    5.1520  -22.4702    0.0000 O   0  0  0  0  0  0  0  0  0  0  0  0
   -5.2344  -23.9855    0.0000 C   0  0  0  0  0  0  0  0  0  0  0  0
    7.7506  -22.4702    0.0000 C   0  0  0  0  0  0  0  0  0  0  0  0
   -3.9313  -26.2279    0.0000 N   0  0  0  0  0  0  0  0  0  0  0  0
   10.3491  -23.9702    0.0000 O   0  0  0  0  0  0  0  0  0  0  0  0
   -6.5298  -24.7429    0.0000 C   0  0  0  0  0  0  0  0  0  0  0  0
    9.0460  -21.7202    0.0000 C   0  0  0  0  0  0  0  0  0  0  0  0
    6.4551  -21.7202    0.0000 C   0  0  0  0  0  0  0  0  0  0  0  0
   -7.8327  -23.9929    0.0000 C   0  0  0  0  0  0  0  0  0  0  0  0
   -6.5298  -26.2506    0.0000 C   0  0  0  0  0  0  0  0  0  0  0  0
   -9.1282  -24.7506    0.0000 C   0  0  0  0  0  0  0  0  0  0  0  0
   -7.8327  -27.0006    0.0000 C   0  0  0  0  0  0  0  0  0  0  0  0
   -9.1282  -26.2506    0.0000 C   0  0  0  0  0  0  0  0  0  0  0  0
  2  1  1  0  0  0  0
  3  1  1  0  0  0  0
  4  6  1  0  0  0  0
  5  2  1  0  0  0  0
  5  6  1  1  0  0  0
  7  8  1  0  0  0  0
  8  1  1  0  0  0  0
  9 10  1  0  0  0  0
 10  7  1  0  0  0  0
 11  9  1  0  0  0  0
 12  4  1  0  0  0  0
 13  2  2  0  0  0  0
 14  3  1  0  0  0  0
 15  4  2  0  0  0  0
 16  3  2  0  0  0  0
 17 14  1  0  0  0  0
 18 11  2  0  0  0  0
 19  7  2  0  0  0  0
 20 12  1  0  0  0  0
  9 21  1  1  0  0  0
 12 22  1  1  0  0  0
 23 11  1  0  0  0  0
 24 20  1  0  0  0  0
 25 21  1  0  0  0  0
 26 21  1  0  0  0  0
 27 24  2  0  0  0  0
 28 24  1  0  0  0  0
 29 27  1  0  0  0  0
 30 28  2  0  0  0  0
 31 29  2  0  0  0  0
 17  5  1  0  0  0  0
 30 31  1  0  0  0  0
M  END
> <Value>
4.875169850586141

> <Relation>
=

> <SourceURI>
mol:CHEMBL1213734

$$$$

Generated by Molecular Materials Informatics

 32 33  0  0  0  0  0  0  0  0999 V2000
   16.3911  -23.6537    0.0000 N   0  0  0  0  0  0  0  0  0  0  0  0
   15.0957  -24.4037    0.0000 C   0  0  0  0  0  0  0  0  0  0  0  0
   16.3911  -22.1537    0.0000 C   0  0  0  0  0  0  0  0  0  0  0  0
   11.2017  -23.6611    0.0000 C   0  0  0  0  0  0  0  0  0  0  0  0
   13.8002  -23.6460    0.0000 C   0  0  0  0  0  0  0  0  0  0  0  0
   12.5048  -24.4037    0.0000 N   0  0  0  0  0  0  0  0  0  0  0  0
   18.9895  -23.6537    0.0000 C   0  0  0  0  0  0  0  0  0  0  0  0
   17.6940  -24.4037    0.0000 C   0  0  0  0  0  0  0  0  0  0  0  0
   20.2926  -24.4037    0.0000 N   0  0  0  0  0  0  0  0  0  0  0  0
   21.5880  -23.6537    0.0000 C   0  0  0  0  0  0  0  0  0  0  0  0
   22.8835  -24.4037    0.0000 C   0  0  0  0  0  0  0  0  0  0  0  0
    9.9062  -24.4111    0.0000 C   0  0  0  0  0  0  0  0  0  0  0  0
   15.1031  -25.9037    0.0000 O   0  0  0  0  0  0  0  0  0  0  0  0
   15.0957  -21.4037    0.0000 C   0  0  0  0  0  0  0  0  0  0  0  0
   11.1940  -22.1611    0.0000 O   0  0  0  0  0  0  0  0  0  0  0  0
   17.6940  -21.4037    0.0000 O   0  0  0  0  0  0  0  0  0  0  0  0
   13.7850  -22.1537    0.0000 C   0  0  0  0  0  0  0  0  0  0  0  0
   18.9895  -22.1537    0.0000 O   0  0  0  0  0  0  0  0  0  0  0  0
   22.8911  -25.9037    0.0000 O   0  0  0  0  0  0  0  0  0  0  0  0
   21.5880  -22.1537    0.0000 C   0  0  0  0  0  0  0  0  0  0  0  0
    8.6031  -23.6687    0.0000 C   0  0  0  0  0  0  0  0  0  0  0  0
    9.9062  -25.9111    0.0000 N   0  0  0  0  0  0  0  0  0  0  0  0
   24.1866  -23.6537    0.0000 O   0  0  0  0  0  0  0  0  0  0  0  0
    7.3077  -24.4264    0.0000 C   0  0  0  0  0  0  0  0  0  0  0  0
   22.8835  -21.4037    0.0000 C   0  0  0  0  0  0  0  0  0  0  0  0
    7.3077  -25.9338    0.0000 C   0  0  0  0  0  0  0  0  0  0  0  0
    6.0048  -23.6764    0.0000 C   0  0  0  0  0  0  0  0  0  0  0  0
   24.1866  -22.1537    0.0000 C   0  0  0  0  0  0  0  0  0  0  0  0
   22.8835  -19.9037    0.0000 C   0  0  0  0  0  0  0  0  0  0  0  0
    6.0048  -26.6838    0.0000 C   0  0  0  0  0  0  0  0  0  0  0  0
    4.7093  -24.4264    0.0000 C   0  0  0  0  0  0  0  0  0  0  0  0
    4.7093  -25.9338    0.0000 C   0  0  0  0  0  0  0  0  0  0  0  0
  2  1  1  0  0  0  0
  3  1  1  0  0  0  0
  4  6  1  0  0  0  0
  5  2  1  0  0  0  0
  5  6  1  1  0  0  0
  7  8  1  0  0  0  0
  8  1  1  0  0  0  0
  9  7  1  0  0  0  0
 10  9  1  0  0  0  0
 11 10  1  0  0  0  0
 12  4  1  0  0  0  0
 13  2  2  0  0  0  0
 14  3  1  0  0  0  0
 15  4  2  0  0  0  0
 16  3  2  0  0  0  0
 17 14  1  0  0  0  0
 18  7  2  0  0  0  0
 19 11  2  0  0  0  0
 10 20  1  1  0  0  0
 21 12  1  0  0  0  0
 12 22  1  1  0  0  0
 23 11  1  0  0  0  0
 24 21  1  0  0  0  0
 25 20  1  0  0  0  0
 26 24  1  0  0  0  0
 27 24  2  0  0  0  0
 28 25  1  0  0  0  0
 29 25  1  0  0  0  0
 30 26  2  0  0  0  0
 31 27  1  0  0  0  0
 32 31  2  0  0  0  0
 17  5  1  0  0  0  0
 30 32  1  0  0  0  0
M  END
> <Value>
5.0746879085003505

> <Relation>
=

> <SourceURI>
mol:CHEMBL1213735

$$$$

Generated by Molecular Materials Informatics

 29 30  0  0  0  0  0  0  0  0999 V2000
    3.0541   -0.0994    0.0000 N   0  0  0  0  0  0  0  0  0  0  0  0
    1.7731   -0.8800    0.0000 C   0  0  0  0  0  0  0  0  0  0  0  0
    3.0237    1.4013    0.0000 C   0  0  0  0  0  0  0  0  0  0  0  0
   -2.1378   -0.2131    0.0000 C   0  0  0  0  0  0  0  0  0  0  0  0
    0.4543   -0.1600    0.0000 C   0  0  0  0  0  0  0  0  0  0  0  0
   -0.8190   -0.9331    0.0000 N   0  0  0  0  0  0  0  0  0  0  0  0
    4.3729   -0.8043    0.0000 C   0  0  0  0  0  0  0  0  0  0  0  0
    5.6538   -0.0387    0.0000 C   0  0  0  0  0  0  0  0  0  0  0  0
   -3.4185   -0.9862    0.0000 C   0  0  0  0  0  0  0  0  0  0  0  0
   10.8835   -0.0842    0.0000 C   0  0  0  0  0  0  0  0  0  0  0  0
    1.8111   -2.3732    0.0000 O   0  0  0  0  0  0  0  0  0  0  0  0
    1.7049    2.1214    0.0000 C   0  0  0  0  0  0  0  0  0  0  0  0
   -2.1680    1.2801    0.0000 O   0  0  0  0  0  0  0  0  0  0  0  0
    4.3047    2.1820    0.0000 O   0  0  0  0  0  0  0  0  0  0  0  0
    9.5647   -0.7967    0.0000 C   0  0  0  0  0  0  0  0  0  0  0  0
    0.4241    1.3407    0.0000 C   0  0  0  0  0  0  0  0  0  0  0  0
   -4.8208   -0.4632    0.0000 C   0  0  0  0  0  0  0  0  0  0  0  0
    5.6083    1.4620    0.0000 O   0  0  0  0  0  0  0  0  0  0  0  0
   10.9213    1.4240    0.0000 O   0  0  0  0  0  0  0  0  0  0  0  0
    6.9726   -0.7361    0.0000 N   0  0  0  0  0  0  0  0  0  0  0  0
   -3.4185   -2.4793    0.0000 N   0  0  0  0  0  0  0  0  0  0  0  0
    8.2838   -0.0159    0.0000 C   0  0  0  0  0  0  0  0  0  0  0  0
   12.1643   -0.8649    0.0000 O   0  0  0  0  0  0  0  0  0  0  0  0
   -6.3062   -1.2136    0.0000 C   0  0  0  0  0  0  0  0  0  0  0  0
   -6.3139   -2.7143    0.0000 C   0  0  0  0  0  0  0  0  0  0  0  0
   -7.6023   -0.4556    0.0000 C   0  0  0  0  0  0  0  0  0  0  0  0
   -8.8983   -1.2059    0.0000 C   0  0  0  0  0  0  0  0  0  0  0  0
   -7.6176   -3.4570    0.0000 C   0  0  0  0  0  0  0  0  0  0  0  0
   -8.9060   -2.7066    0.0000 C   0  0  0  0  0  0  0  0  0  0  0  0
  2  1  1  0  0  0  0
  3  1  1  0  0  0  0
  4  6  1  0  0  0  0
  5  2  1  0  0  0  0
  5  6  1  1  0  0  0
  7  1  1  0  0  0  0
  8  7  1  0  0  0  0
  9  4  1  0  0  0  0
 10 15  1  0  0  0  0
 11  2  2  0  0  0  0
 12  3  1  0  0  0  0
 13  4  2  0  0  0  0
 14  3  2  0  0  0  0
 15 22  1  0  0  0  0
 16 12  1  0  0  0  0
 17  9  1  0  0  0  0
 18  8  2  0  0  0  0
 19 10  2  0  0  0  0
 20  8  1  0  0  0  0
  9 21  1  6  0  0  0
 22 20  1  0  0  0  0
 23 10  1  0  0  0  0
 24 17  1  0  0  0  0
 25 24  1  0  0  0  0
 26 24  2  0  0  0  0
 27 26  1  0  0  0  0
 28 25  2  0  0  0  0
 29 27  2  0  0  0  0
 16  5  1  0  0  0  0
 29 28  1  0  0  0  0
M  END
> <Value>
4.894489815230026

> <Relation>
=

> <SourceURI>
mol:CHEMBL1213795

$$$$

Generated by Molecular Materials Informatics

 35 37  0  0  0  0  0  0  0  0999 V2000
   16.4163    0.2985    0.0000 N   0  0  0  0  0  0  0  0  0  0  0  0
   15.1284   -0.4440    0.0000 C   0  0  0  0  0  0  0  0  0  0  0  0
   16.4163    1.7985    0.0000 C   0  0  0  0  0  0  0  0  0  0  0  0
   11.2270    0.2909    0.0000 C   0  0  0  0  0  0  0  0  0  0  0  0
   13.8253    0.3060    0.0000 C   0  0  0  0  0  0  0  0  0  0  0  0
   12.5299   -0.4515    0.0000 N   0  0  0  0  0  0  0  0  0  0  0  0
   19.0148    0.2985    0.0000 C   0  0  0  0  0  0  0  0  0  0  0  0
   17.7193   -0.4515    0.0000 C   0  0  0  0  0  0  0  0  0  0  0  0
   20.3179   -0.4515    0.0000 N   0  0  0  0  0  0  0  0  0  0  0  0
   21.6133    0.2985    0.0000 C   0  0  0  0  0  0  0  0  0  0  0  0
   22.9088   -0.4515    0.0000 C   0  0  0  0  0  0  0  0  0  0  0  0
    9.9315   -0.4591    0.0000 C   0  0  0  0  0  0  0  0  0  0  0  0
   15.1284   -1.9440    0.0000 O   0  0  0  0  0  0  0  0  0  0  0  0
   15.1208    2.5485    0.0000 C   0  0  0  0  0  0  0  0  0  0  0  0
   11.2193    1.7909    0.0000 O   0  0  0  0  0  0  0  0  0  0  0  0
   17.7193    2.5485    0.0000 O   0  0  0  0  0  0  0  0  0  0  0  0
   21.6133    1.7985    0.0000 C   0  0  0  0  0  0  0  0  0  0  0  0
   13.8103    1.7985    0.0000 C   0  0  0  0  0  0  0  0  0  0  0  0
   19.0148    1.7985    0.0000 O   0  0  0  0  0  0  0  0  0  0  0  0
   22.9163   -1.9515    0.0000 O   0  0  0  0  0  0  0  0  0  0  0  0
    8.6284    0.2833    0.0000 C   0  0  0  0  0  0  0  0  0  0  0  0
    9.9315   -1.9591    0.0000 N   0  0  0  0  0  0  0  0  0  0  0  0
   24.2193    0.2985    0.0000 O   0  0  0  0  0  0  0  0  0  0  0  0
   22.9088    2.5485    0.0000 C   0  0  0  0  0  0  0  0  0  0  0  0
    7.3330   -0.4742    0.0000 C   0  0  0  0  0  0  0  0  0  0  0  0
    7.3330   -1.9818    0.0000 C   0  0  0  0  0  0  0  0  0  0  0  0
    6.0299    0.2758    0.0000 C   0  0  0  0  0  0  0  0  0  0  0  0
   24.2117    1.7985    0.0000 C   0  0  0  0  0  0  0  0  0  0  0  0
   22.9088    4.0409    0.0000 C   0  0  0  0  0  0  0  0  0  0  0  0
    6.0299   -2.7318    0.0000 C   0  0  0  0  0  0  0  0  0  0  0  0
   25.5072    2.5485    0.0000 C   0  0  0  0  0  0  0  0  0  0  0  0
   24.1966    4.7985    0.0000 C   0  0  0  0  0  0  0  0  0  0  0  0
    4.7344   -0.4818    0.0000 C   0  0  0  0  0  0  0  0  0  0  0  0
    4.7344   -1.9818    0.0000 C   0  0  0  0  0  0  0  0  0  0  0  0
   25.5072    4.0485    0.0000 C   0  0  0  0  0  0  0  0  0  0  0  0
  2  1  1  0  0  0  0
  3  1  1  0  0  0  0
  4  6  1  0  0  0  0
  5  2  1  0  0  0  0
  5  6  1  1  0  0  0
  7  8  1  0  0  0  0
  8  1  1  0  0  0  0
  9  7  1  0  0  0  0
 10  9  1  0  0  0  0
 11 10  1  0  0  0  0
 12  4  1  0  0  0  0
 13  2  2  0  0  0  0
 14  3  1  0  0  0  0
 15  4  2  0  0  0  0
 16  3  2  0  0  0  0
 10 17  1  1  0  0  0
 18  5  1  0  0  0  0
 19  7  2  0  0  0  0
 20 11  2  0  0  0  0
 21 12  1  0  0  0  0
 12 22  1  1  0  0  0
 23 11  1  0  0  0  0
 24 17  1  0  0  0  0
 25 21  1  0  0  0  0
 26 25  1  0  0  0  0
 27 25  2  0  0  0  0
 28 24  2  0  0  0  0
 29 24  1  0  0  0  0
 30 26  2  0  0  0  0
 31 28  1  0  0  0  0
 32 29  2  0  0  0  0
 33 27  1  0  0  0  0
 34 33  2  0  0  0  0
 35 32  1  0  0  0  0
 18 14  1  0  0  0  0
 35 31  2  0  0  0  0
 30 34  1  0  0  0  0
M  END
> <Value>
4.1778319206319825

> <Relation>
=

> <SourceURI>
mol:CHEMBL1213796

$$$$

Generated by Molecular Materials Informatics

 33 34  0  0  0  0  0  0  0  0999 V2000
    2.9475   -4.7369    0.0000 N   0  0  0  0  0  0  0  0  0  0  0  0
    1.6598   -5.5171    0.0000 C   0  0  0  0  0  0  0  0  0  0  0  0
    2.9097   -3.2370    0.0000 C   0  0  0  0  0  0  0  0  0  0  0  0
   -2.2489   -4.8505    0.0000 C   0  0  0  0  0  0  0  0  0  0  0  0
    0.3492   -4.7974    0.0000 C   0  0  0  0  0  0  0  0  0  0  0  0
   -0.9308   -5.5777    0.0000 N   0  0  0  0  0  0  0  0  0  0  0  0
    5.5382   -4.6838    0.0000 C   0  0  0  0  0  0  0  0  0  0  0  0
    4.2656   -5.4490    0.0000 C   0  0  0  0  0  0  0  0  0  0  0  0
    6.8638   -5.3808    0.0000 N   0  0  0  0  0  0  0  0  0  0  0  0
    9.4545   -5.4413    0.0000 C   0  0  0  0  0  0  0  0  0  0  0  0
    8.1743   -4.6610    0.0000 C   0  0  0  0  0  0  0  0  0  0  0  0
   -3.5291   -5.6231    0.0000 C   0  0  0  0  0  0  0  0  0  0  0  0
    1.6976   -7.0170    0.0000 O   0  0  0  0  0  0  0  0  0  0  0  0
    9.5605   -0.9418    0.0000 C   0  0  0  0  0  0  0  0  0  0  0  0
    1.5991   -2.5174    0.0000 C   0  0  0  0  0  0  0  0  0  0  0  0
   -2.2792   -3.3583    0.0000 O   0  0  0  0  0  0  0  0  0  0  0  0
    4.1974   -2.4567    0.0000 O   0  0  0  0  0  0  0  0  0  0  0  0
    0.3114   -3.2975    0.0000 C   0  0  0  0  0  0  0  0  0  0  0  0
    5.5004   -3.1839    0.0000 O   0  0  0  0  0  0  0  0  0  0  0  0
    9.4241   -6.9412    0.0000 O   0  0  0  0  0  0  0  0  0  0  0  0
   -4.9380   -5.1081    0.0000 C   0  0  0  0  0  0  0  0  0  0  0  0
    8.2803   -0.1540    0.0000 O   0  0  0  0  0  0  0  0  0  0  0  0
    8.2121   -3.1612    0.0000 C   0  0  0  0  0  0  0  0  0  0  0  0
    9.5227   -2.4416    0.0000 C   0  0  0  0  0  0  0  0  0  0  0  0
   -3.5291   -7.1230    0.0000 N   0  0  0  0  0  0  0  0  0  0  0  0
   10.7800   -4.7218    0.0000 O   0  0  0  0  0  0  0  0  0  0  0  0
   10.8709   -0.2146    0.0000 O   0  0  0  0  0  0  0  0  0  0  0  0
   -6.4152   -5.8580    0.0000 C   0  0  0  0  0  0  0  0  0  0  0  0
   -7.7105   -5.1005    0.0000 C   0  0  0  0  0  0  0  0  0  0  0  0
   -6.4228   -7.3579    0.0000 C   0  0  0  0  0  0  0  0  0  0  0  0
   -7.7256   -8.1002    0.0000 C   0  0  0  0  0  0  0  0  0  0  0  0
   -9.0134   -5.8427    0.0000 C   0  0  0  0  0  0  0  0  0  0  0  0
   -9.0209   -7.3502    0.0000 C   0  0  0  0  0  0  0  0  0  0  0  0
  2  1  1  0  0  0  0
  3  1  1  0  0  0  0
  4  6  1  0  0  0  0
  5  2  1  0  0  0  0
  5  6  1  1  0  0  0
  7  8  1  0  0  0  0
  8  1  1  0  0  0  0
  9  7  1  0  0  0  0
 10 11  1  0  0  0  0
 11  9  1  0  0  0  0
 12  4  1  0  0  0  0
 13  2  2  0  0  0  0
 14 24  1  0  0  0  0
 15  3  1  0  0  0  0
 16  4  2  0  0  0  0
 17  3  2  0  0  0  0
 18  5  1  0  0  0  0
 19  7  2  0  0  0  0
 20 10  2  0  0  0  0
 21 12  1  0  0  0  0
 22 14  2  0  0  0  0
 11 23  1  1  0  0  0
 24 23  1  0  0  0  0
 12 25  1  6  0  0  0
 26 10  1  0  0  0  0
 27 14  1  0  0  0  0
 28 21  1  0  0  0  0
 29 28  2  0  0  0  0
 30 28  1  0  0  0  0
 31 30  2  0  0  0  0
 32 29  1  0  0  0  0
 33 32  2  0  0  0  0
 15 18  1  0  0  0  0
 33 31  1  0  0  0  0
M  END
> <Value>
4.899284913426919

> <Relation>
=

> <SourceURI>
mol:CHEMBL1213797

$$$$

Generated by Molecular Materials Informatics

 29 30  0  0  0  0  0  0  0  0999 V2000
   19.9389   -6.3853    0.0000 N   0  0  0  0  0  0  0  0  0  0  0  0
   18.6582   -7.1657    0.0000 C   0  0  0  0  0  0  0  0  0  0  0  0
   19.9087   -4.8847    0.0000 C   0  0  0  0  0  0  0  0  0  0  0  0
   14.7477   -6.4989    0.0000 C   0  0  0  0  0  0  0  0  0  0  0  0
   17.3470   -6.4458    0.0000 C   0  0  0  0  0  0  0  0  0  0  0  0
   16.0663   -7.2188    0.0000 N   0  0  0  0  0  0  0  0  0  0  0  0
   21.2576   -7.0901    0.0000 C   0  0  0  0  0  0  0  0  0  0  0  0
   26.4490   -7.0824    0.0000 C   0  0  0  0  0  0  0  0  0  0  0  0
   22.5384   -6.3245    0.0000 C   0  0  0  0  0  0  0  0  0  0  0  0
   13.4668   -7.2720    0.0000 C   0  0  0  0  0  0  0  0  0  0  0  0
   18.6961   -8.6588    0.0000 O   0  0  0  0  0  0  0  0  0  0  0  0
   23.8571   -7.0219    0.0000 N   0  0  0  0  0  0  0  0  0  0  0  0
   18.5900   -4.1646    0.0000 C   0  0  0  0  0  0  0  0  0  0  0  0
   14.7173   -5.0058    0.0000 O   0  0  0  0  0  0  0  0  0  0  0  0
   21.1894   -4.1040    0.0000 O   0  0  0  0  0  0  0  0  0  0  0  0
   17.3092   -4.9453    0.0000 C   0  0  0  0  0  0  0  0  0  0  0  0
   26.4186   -8.5830    0.0000 O   0  0  0  0  0  0  0  0  0  0  0  0
   12.0648   -6.7490    0.0000 C   0  0  0  0  0  0  0  0  0  0  0  0
   22.4930   -4.8239    0.0000 O   0  0  0  0  0  0  0  0  0  0  0  0
   27.7677   -6.3700    0.0000 N   0  0  0  0  0  0  0  0  0  0  0  0
   25.1682   -6.3018    0.0000 C   0  0  0  0  0  0  0  0  0  0  0  0
   13.4668   -8.7725    0.0000 N   0  0  0  0  0  0  0  0  0  0  0  0
   10.5794   -7.4993    0.0000 C   0  0  0  0  0  0  0  0  0  0  0  0
   29.0485   -7.1506    0.0000 O   0  0  0  0  0  0  0  0  0  0  0  0
    9.2834   -6.7414    0.0000 C   0  0  0  0  0  0  0  0  0  0  0  0
   10.5717   -8.9999    0.0000 C   0  0  0  0  0  0  0  0  0  0  0  0
    9.2683   -9.7502    0.0000 C   0  0  0  0  0  0  0  0  0  0  0  0
    7.9798   -7.4917    0.0000 C   0  0  0  0  0  0  0  0  0  0  0  0
    7.9724   -8.9922    0.0000 C   0  0  0  0  0  0  0  0  0  0  0  0
  2  1  1  0  0  0  0
  3  1  1  0  0  0  0
  4  6  1  0  0  0  0
  5  2  1  0  0  0  0
  5  6  1  1  0  0  0
  7  1  1  0  0  0  0
  8 21  1  0  0  0  0
  9  7  1  0  0  0  0
 10  4  1  0  0  0  0
 11  2  2  0  0  0  0
 12  9  1  0  0  0  0
 13  3  1  0  0  0  0
 14  4  2  0  0  0  0
 15  3  2  0  0  0  0
 16 13  1  0  0  0  0
 17  8  2  0  0  0  0
 18 10  1  0  0  0  0
 19  9  2  0  0  0  0
 20  8  1  0  0  0  0
 21 12  1  0  0  0  0
 10 22  1  6  0  0  0
 23 18  1  0  0  0  0
 24 20  1  0  0  0  0
 25 23  2  0  0  0  0
 26 23  1  0  0  0  0
 27 26  2  0  0  0  0
 28 25  1  0  0  0  0
 29 28  2  0  0  0  0
 16  5  1  0  0  0  0
 29 27  1  0  0  0  0
M  END
> <Value>
3.516826513907486

> <Relation>
=

> <SourceURI>
mol:CHEMBL1213798

$$$$

Generated by Molecular Materials Informatics

 13 12  0  0  0  0  0  0  0  0999 V2000
   -2.5981    0.3751    0.0000 C   0  0  0  0  0  0  0  0  0  0  0  0
   -1.2991   -0.3749    0.0000 C   0  0  0  0  0  0  0  0  0  0  0  0
   -2.5981    1.8751    0.0000 O   0  0  0  0  0  0  0  0  0  0  0  0
   -3.8972   -0.3749    0.0000 N   0  0  0  0  0  0  0  0  0  0  0  0
   -5.1963    0.3749    0.0000 O   0  0  0  0  0  0  0  0  0  0  0  0
    0.0000    0.3749    0.0000 N   0  0  0  0  0  0  0  0  0  0  0  0
    1.2991   -0.3749    0.0000 C   0  0  0  0  0  0  0  0  0  0  0  0
    1.2991   -1.8751    0.0000 O   0  0  0  0  0  0  0  0  0  0  0  0
    2.5981    0.3749    0.0000 N   0  0  0  0  0  0  0  0  0  0  0  0
    3.8972   -0.3749    0.0000 C   0  0  0  0  0  0  0  0  0  0  0  0
    3.8972   -1.8751    0.0000 C   0  0  0  0  0  0  0  0  0  0  0  0
    5.1963   -1.1251    0.0000 C   0  0  0  0  0  0  0  0  0  0  0  0
    4.9579    0.6857    0.0000 C   0  0  0  0  0  0  0  0  0  0  0  0
  1  2  1  0  0  0  0
  1  3  2  0  0  0  0
  1  4  1  0  0  0  0
  4  5  1  0  0  0  0
  6  7  1  0  0  0  0
  7  8  2  0  0  0  0
  7  9  1  0  0  0  0
 10 11  1  0  0  0  0
 10 13  1  0  0  0  0
 10 12  1  0  0  0  0
  9 10  1  0  0  0  0
  2  6  1  0  0  0  0
M  END
> <Value>
4.0

> <Relation>
<

> <SourceURI>
mol:CHEMBL2035987

$$$$

Generated by Molecular Materials Informatics

 14 13  0  0  0  0  0  0  0  0999 V2000
   -2.5981   -0.3751    0.0000 C   0  0  0  0  0  0  0  0  0  0  0  0
   -1.2991    0.3749    0.0000 C   0  0  0  0  0  0  0  0  0  0  0  0
   -1.2991    1.8751    0.0000 C   0  0  0  0  0  0  0  0  0  0  0  0
   -2.5981   -1.8751    0.0000 O   0  0  0  0  0  0  0  0  0  0  0  0
   -3.8972    0.3749    0.0000 N   0  0  0  0  0  0  0  0  0  0  0  0
   -5.1963   -0.3749    0.0000 O   0  0  0  0  0  0  0  0  0  0  0  0
    0.0000   -0.3749    0.0000 N   0  0  0  0  0  0  0  0  0  0  0  0
    1.2991    0.3749    0.0000 C   0  0  0  0  0  0  0  0  0  0  0  0
    1.2991    1.8751    0.0000 O   0  0  0  0  0  0  0  0  0  0  0  0
    2.5981   -0.3749    0.0000 N   0  0  0  0  0  0  0  0  0  0  0  0
    3.8972    0.3749    0.0000 C   0  0  0  0  0  0  0  0  0  0  0  0
    3.8972    1.8751    0.0000 C   0  0  0  0  0  0  0  0  0  0  0  0
    5.1963    1.1251    0.0000 C   0  0  0  0  0  0  0  0  0  0  0  0
    5.1963   -0.3749    0.0000 C   0  0  0  0  0  0  0  0  0  0  0  0
  1  2  1  0  0  0  0
  2  3  1  6  0  0  0
  1  4  2  0  0  0  0
  1  5  1  0  0  0  0
  5  6  1  0  0  0  0
  7  8  1  0  0  0  0
  8  9  2  0  0  0  0
  8 10  1  0  0  0  0
 11 12  1  0  0  0  0
 11 14  1  0  0  0  0
 11 13  1  0  0  0  0
 10 11  1  0  0  0  0
  2  7  1  0  0  0  0
M  END
> <Value>
4.0

> <Relation>
<

> <SourceURI>
mol:CHEMBL2036135

$$$$

Generated by Molecular Materials Informatics

 16 15  0  0  0  0  0  0  0  0999 V2000
   -2.5980   -0.5438    0.0000 C   0  0  0  0  0  0  0  0  0  0  0  0
   -1.2991    0.2062    0.0000 C   0  0  0  0  0  0  0  0  0  0  0  0
   -2.5980   -2.0438    0.0000 O   0  0  0  0  0  0  0  0  0  0  0  0
   -3.8971    0.2062    0.0000 N   0  0  0  0  0  0  0  0  0  0  0  0
   -5.1962   -0.5437    0.0000 O   0  0  0  0  0  0  0  0  0  0  0  0
    0.0000   -0.5437    0.0000 N   0  0  0  0  0  0  0  0  0  0  0  0
    1.2991    0.2062    0.0000 C   0  0  0  0  0  0  0  0  0  0  0  0
    1.2991    1.7063    0.0000 O   0  0  0  0  0  0  0  0  0  0  0  0
    2.5980   -0.5437    0.0000 N   0  0  0  0  0  0  0  0  0  0  0  0
    3.8971    0.2062    0.0000 C   0  0  0  0  0  0  0  0  0  0  0  0
    3.8971    1.7063    0.0000 C   0  0  0  0  0  0  0  0  0  0  0  0
    5.1962    0.9563    0.0000 C   0  0  0  0  0  0  0  0  0  0  0  0
    5.1962   -0.5437    0.0000 C   0  0  0  0  0  0  0  0  0  0  0  0
    0.0000    2.4563    0.0000 C   0  0  0  0  0  0  0  0  0  0  0  0
   -1.2991    1.7063    0.0000 C   0  0  0  0  0  0  0  0  0  0  0  0
   -2.5982    2.4563    0.0000 C   0  0  0  0  0  0  0  0  0  0  0  0
  1  2  1  0  0  0  0
  2 15  1  6  0  0  0
  1  3  2  0  0  0  0
  1  4  1  0  0  0  0
  4  5  1  0  0  0  0
  6  7  1  0  0  0  0
  7  8  2  0  0  0  0
  7  9  1  0  0  0  0
 10 11  1  0  0  0  0
 10 13  1  0  0  0  0
 10 12  1  0  0  0  0
  9 10  1  0  0  0  0
  2  6  1  0  0  0  0
 15 14  1  0  0  0  0
 15 16  1  0  0  0  0
M  END
> <Value>
4.0

> <Relation>
<

> <SourceURI>
mol:CHEMBL2036136

$$$$

Generated by Molecular Materials Informatics

 17 16  0  0  0  0  0  0  0  0999 V2000
   -2.5980   -0.8813    0.0000 C   0  0  0  0  0  0  0  0  0  0  0  0
   -1.2991   -0.1313    0.0000 C   0  0  0  0  0  0  0  0  0  0  0  0
   -2.5980   -2.3813    0.0000 O   0  0  0  0  0  0  0  0  0  0  0  0
   -3.8971   -0.1313    0.0000 N   0  0  0  0  0  0  0  0  0  0  0  0
   -5.1962   -0.8812    0.0000 O   0  0  0  0  0  0  0  0  0  0  0  0
    0.0000   -0.8812    0.0000 N   0  0  0  0  0  0  0  0  0  0  0  0
    1.2991   -0.1313    0.0000 C   0  0  0  0  0  0  0  0  0  0  0  0
    1.2991    1.3688    0.0000 O   0  0  0  0  0  0  0  0  0  0  0  0
    2.5980   -0.8812    0.0000 N   0  0  0  0  0  0  0  0  0  0  0  0
    3.8971   -0.1313    0.0000 C   0  0  0  0  0  0  0  0  0  0  0  0
    3.8971    1.3688    0.0000 C   0  0  0  0  0  0  0  0  0  0  0  0
    5.1962    0.6188    0.0000 C   0  0  0  0  0  0  0  0  0  0  0  0
    5.1962   -0.8812    0.0000 C   0  0  0  0  0  0  0  0  0  0  0  0
   -1.2991    1.3688    0.0000 C   0  0  0  0  0  0  0  0  0  0  0  0
   -2.5982    3.6188    0.0000 C   0  0  0  0  0  0  0  0  0  0  0  0
   -2.5982    2.1188    0.0000 C   0  0  0  0  0  0  0  0  0  0  0  0
   -4.0471    1.7307    0.0000 C   0  0  0  0  0  0  0  0  0  0  0  0
  1  2  1  0  0  0  0
  2 14  1  6  0  0  0
  1  3  2  0  0  0  0
  1  4  1  0  0  0  0
  4  5  1  0  0  0  0
  6  7  1  0  0  0  0
  7  8  2  0  0  0  0
  7  9  1  0  0  0  0
 10 11  1  0  0  0  0
 10 13  1  0  0  0  0
 10 12  1  0  0  0  0
  9 10  1  0  0  0  0
  2  6  1  0  0  0  0
 14 16  1  0  0  0  0
 16 15  1  0  0  0  0
 16 17  1  0  0  0  0
M  END
> <Value>
4.0

> <Relation>
<

> <SourceURI>
mol:CHEMBL2036137

$$$$

Generated by Molecular Materials Informatics

 17 16  0  0  0  0  0  0  0  0999 V2000
   -4.1855  -12.8396    0.0000 C   0  0  0  0  0  0  0  0  0  0  0  0
   -2.8866  -12.0896    0.0000 C   0  0  0  0  0  0  0  0  0  0  0  0
   -4.1855  -14.3396    0.0000 O   0  0  0  0  0  0  0  0  0  0  0  0
   -5.4846  -12.0896    0.0000 N   0  0  0  0  0  0  0  0  0  0  0  0
   -6.7837  -12.8395    0.0000 O   0  0  0  0  0  0  0  0  0  0  0  0
   -1.5875  -12.8395    0.0000 N   0  0  0  0  0  0  0  0  0  0  0  0
   -0.2884  -12.0896    0.0000 C   0  0  0  0  0  0  0  0  0  0  0  0
   -0.2884  -10.5895    0.0000 O   0  0  0  0  0  0  0  0  0  0  0  0
    1.0105  -12.8395    0.0000 N   0  0  0  0  0  0  0  0  0  0  0  0
    2.3096  -12.0896    0.0000 C   0  0  0  0  0  0  0  0  0  0  0  0
    2.3096  -10.5895    0.0000 C   0  0  0  0  0  0  0  0  0  0  0  0
    3.6087  -11.3395    0.0000 C   0  0  0  0  0  0  0  0  0  0  0  0
    3.6087  -12.8395    0.0000 C   0  0  0  0  0  0  0  0  0  0  0  0
   -2.8866  -10.5895    0.0000 C   0  0  0  0  0  0  0  0  0  0  0  0
   -1.5875   -9.8395    0.0000 C   0  0  0  0  0  0  0  0  0  0  0  0
   -4.1857   -9.8395    0.0000 C   0  0  0  0  0  0  0  0  0  0  0  0
   -4.1857   -8.3395    0.0000 C   0  0  0  0  0  0  0  0  0  0  0  0
  1  3  2  0  0  0  0
  1  4  1  0  0  0  0
  4  5  1  0  0  0  0
  6  7  1  0  0  0  0
  7  8  2  0  0  0  0
  7  9  1  0  0  0  0
 10 11  1  0  0  0  0
 10 13  1  0  0  0  0
 10 12  1  0  0  0  0
  9 10  1  0  0  0  0
  2  6  1  6  0  0  0
 14 15  1  6  0  0  0
  1  2  1  0  0  0  0
 14 16  1  0  0  0  0
  2 14  1  0  0  0  0
 16 17  1  0  0  0  0
M  END
> <Value>
4.0

> <Relation>
<

> <SourceURI>
mol:CHEMBL2036138

$$$$

Generated by Molecular Materials Informatics

 20 20  0  0  0  0  0  0  0  0999 V2000
   -4.1856  -13.0080    0.0000 C   0  0  0  0  0  0  0  0  0  0  0  0
   -2.8866  -12.2580    0.0000 C   0  0  0  0  0  0  0  0  0  0  0  0
   -4.1856  -14.5080    0.0000 O   0  0  0  0  0  0  0  0  0  0  0  0
   -5.4847  -12.2580    0.0000 N   0  0  0  0  0  0  0  0  0  0  0  0
   -6.7838  -13.0078    0.0000 O   0  0  0  0  0  0  0  0  0  0  0  0
   -1.5875  -13.0078    0.0000 N   0  0  0  0  0  0  0  0  0  0  0  0
   -0.2884  -12.2580    0.0000 C   0  0  0  0  0  0  0  0  0  0  0  0
   -0.2884  -10.7577    0.0000 O   0  0  0  0  0  0  0  0  0  0  0  0
    1.0106  -13.0078    0.0000 N   0  0  0  0  0  0  0  0  0  0  0  0
    2.3097  -12.2580    0.0000 C   0  0  0  0  0  0  0  0  0  0  0  0
    2.3097  -10.7577    0.0000 C   0  0  0  0  0  0  0  0  0  0  0  0
    3.6088  -11.5078    0.0000 C   0  0  0  0  0  0  0  0  0  0  0  0
    3.6088  -13.0078    0.0000 C   0  0  0  0  0  0  0  0  0  0  0  0
   -2.8866  -10.7577    0.0000 C   0  0  0  0  0  0  0  0  0  0  0  0
   -4.1858  -10.0077    0.0000 C   0  0  0  0  0  0  0  0  0  0  0  0
   -4.1803   -8.5095    0.0000 C   0  0  0  0  0  0  0  0  0  0  0  0
   -5.4778   -7.7597    0.0000 C   0  0  0  0  0  0  0  0  0  0  0  0
   -6.7787   -8.5097    0.0000 C   0  0  0  0  0  0  0  0  0  0  0  0
   -6.7738  -10.0175    0.0000 C   0  0  0  0  0  0  0  0  0  0  0  0
   -5.4753  -10.7607    0.0000 C   0  0  0  0  0  0  0  0  0  0  0  0
  6  7  1  0  0  0  0
  7  8  2  0  0  0  0
  7  9  1  0  0  0  0
 10 11  1  0  0  0  0
 10 13  1  0  0  0  0
 10 12  1  0  0  0  0
  9 10  1  0  0  0  0
  2  6  1  0  0  0  0
 14 15  1  0  0  0  0
  1  2  1  0  0  0  0
 15 16  2  0  0  0  0
  2 14  1  6  0  0  0
 16 17  1  0  0  0  0
  1  3  2  0  0  0  0
 17 18  2  0  0  0  0
  1  4  1  0  0  0  0
 18 19  1  0  0  0  0
  4  5  1  0  0  0  0
 19 20  2  0  0  0  0
 20 15  1  0  0  0  0
M  END
> <Value>
4.0

> <Relation>
<

> <SourceURI>
mol:CHEMBL2036139

$$$$

Generated by Molecular Materials Informatics

 17 16  0  0  0  0  0  0  0  0999 V2000
    6.7437  -13.6376    0.0000 C   0  0  0  0  0  0  0  0  0  0  0  0
    8.0426  -12.8876    0.0000 C   0  0  0  0  0  0  0  0  0  0  0  0
    6.7437  -15.1376    0.0000 O   0  0  0  0  0  0  0  0  0  0  0  0
    5.4446  -12.8876    0.0000 N   0  0  0  0  0  0  0  0  0  0  0  0
    4.1455  -13.6374    0.0000 O   0  0  0  0  0  0  0  0  0  0  0  0
    9.3417  -13.6374    0.0000 N   0  0  0  0  0  0  0  0  0  0  0  0
   10.6408  -12.8876    0.0000 C   0  0  0  0  0  0  0  0  0  0  0  0
   10.6408  -11.3874    0.0000 O   0  0  0  0  0  0  0  0  0  0  0  0
   11.9397  -13.6374    0.0000 N   0  0  0  0  0  0  0  0  0  0  0  0
   13.2388  -12.8876    0.0000 C   0  0  0  0  0  0  0  0  0  0  0  0
   13.2388  -11.3874    0.0000 C   0  0  0  0  0  0  0  0  0  0  0  0
   14.5379  -12.1374    0.0000 C   0  0  0  0  0  0  0  0  0  0  0  0
   14.5379  -13.6374    0.0000 C   0  0  0  0  0  0  0  0  0  0  0  0
    8.0426  -11.3874    0.0000 C   0  0  0  0  0  0  0  0  0  0  0  0
    6.7435  -10.6374    0.0000 C   0  0  0  0  0  0  0  0  0  0  0  0
    6.7435   -9.1374    0.0000 S   0  0  0  0  0  0  0  0  0  0  0  0
    5.4444   -8.3874    0.0000 C   0  0  0  0  0  0  0  0  0  0  0  0
  1  3  2  0  0  0  0
  1  4  1  0  0  0  0
  4  5  1  0  0  0  0
  6  7  1  0  0  0  0
  7  8  2  0  0  0  0
  7  9  1  0  0  0  0
 10 11  1  0  0  0  0
 10 13  1  0  0  0  0
 10 12  1  0  0  0  0
  9 10  1  0  0  0  0
  2  6  1  0  0  0  0
 14 15  1  0  0  0  0
  1  2  1  0  0  0  0
 15 16  1  0  0  0  0
  2 14  1  6  0  0  0
 16 17  1  0  0  0  0
M  END
> <Value>
4.0

> <Relation>
<

> <SourceURI>
mol:CHEMBL2036140

$$$$

Generated by Molecular Materials Informatics

 20 20  0  0  0  0  0  0  0  0999 V2000
    0.0018   -0.3749    0.0000 C   0  0  0  0  0  0  0  0  0  0  0  0
   -1.2973   -1.1251    0.0000 N   0  0  0  0  0  0  0  0  0  0  0  0
    0.0018    1.1251    0.0000 O   0  0  0  0  0  0  0  0  0  0  0  0
    1.2973   -1.1251    0.0000 O   0  0  0  0  0  0  0  0  0  0  0  0
   -2.5963   -0.3749    0.0000 C   0  0  0  0  0  0  0  0  0  0  0  0
   -2.5963    1.1251    0.0000 C   0  0  0  0  0  0  0  0  0  0  0  0
   -3.8952    1.8751    0.0000 C   0  0  0  0  0  0  0  0  0  0  0  0
   -5.1943    1.1251    0.0000 C   0  0  0  0  0  0  0  0  0  0  0  0
   -3.8952    3.3750    0.0000 C   0  0  0  0  0  0  0  0  0  0  0  0
   -3.8952   -1.1251    0.0000 C   0  0  0  0  0  0  0  0  0  0  0  0
   -5.1943   -0.3749    0.0000 N   0  0  0  0  0  0  0  0  0  0  0  0
   -3.8952   -2.6251    0.0000 O   0  0  0  0  0  0  0  0  0  0  0  0
   -6.4934   -1.1251    0.0000 O   0  0  0  0  0  0  0  0  0  0  0  0
    2.5963   -0.3749    0.0000 C   0  0  0  0  0  0  0  0  0  0  0  0
    3.8952   -1.1251    0.0000 C   0  0  0  0  0  0  0  0  0  0  0  0
    5.1943   -0.3749    0.0000 C   0  0  0  0  0  0  0  0  0  0  0  0
    6.4934   -1.1251    0.0000 C   0  0  0  0  0  0  0  0  0  0  0  0
    6.4934   -2.6251    0.0000 C   0  0  0  0  0  0  0  0  0  0  0  0
    5.1943   -3.3750    0.0000 C   0  0  0  0  0  0  0  0  0  0  0  0
    3.8952   -2.6251    0.0000 C   0  0  0  0  0  0  0  0  0  0  0  0
  1  2  1  0  0  0  0
  1  3  2  0  0  0  0
  1  4  1  0  0  0  0
  5  6  1  0  0  0  0
  6  7  1  0  0  0  0
  7  8  1  0  0  0  0
  7  9  1  0  0  0  0
 10 11  1  0  0  0  0
 10 12  2  0  0  0  0
 11 13  1  0  0  0  0
  5 10  1  0  0  0  0
  5  2  1  6  0  0  0
 14 15  1  0  0  0  0
 15 16  1  0  0  0  0
 16 17  2  0  0  0  0
 17 18  1  0  0  0  0
 18 19  2  0  0  0  0
 19 20  1  0  0  0  0
 15 20  2  0  0  0  0
  4 14  1  0  0  0  0
M  END
> <Value>
5.040958607678906

> <Relation>
=

> <SourceURI>
mol:CHEMBL2036141

$$$$

Generated by Molecular Materials Informatics

 16 16  0  0  0  0  0  0  0  0999 V2000
   -3.8937    0.0276    0.0000 C   0  0  0  0  0  0  0  0  0  0  0  0
   -2.5946    0.7776    0.0000 C   0  0  0  0  0  0  0  0  0  0  0  0
   -3.8937   -1.4723    0.0000 O   0  0  0  0  0  0  0  0  0  0  0  0
   -5.1928    0.7776    0.0000 N   0  0  0  0  0  0  0  0  0  0  0  0
   -6.4918    0.0276    0.0000 O   0  0  0  0  0  0  0  0  0  0  0  0
   -1.3021    0.0167    0.0000 N   0  0  0  0  0  0  0  0  0  0  0  0
    0.0031    0.7556    0.0000 C   0  0  0  0  0  0  0  0  0  0  0  0
    0.0160    2.2554    0.0000 O   0  0  0  0  0  0  0  0  0  0  0  0
    1.2958   -0.0055    0.0000 N   0  0  0  0  0  0  0  0  0  0  0  0
    2.5946    0.7445    0.0000 C   0  0  0  0  0  0  0  0  0  0  0  0
    3.8937   -0.0055    0.0000 C   0  0  0  0  0  0  0  0  0  0  0  0
    5.1928    0.7445    0.0000 C   0  0  0  0  0  0  0  0  0  0  0  0
    6.4918   -0.0055    0.0000 C   0  0  0  0  0  0  0  0  0  0  0  0
    6.4918   -1.5054    0.0000 C   0  0  0  0  0  0  0  0  0  0  0  0
    5.1928   -2.2554    0.0000 C   0  0  0  0  0  0  0  0  0  0  0  0
    3.8937   -1.5054    0.0000 C   0  0  0  0  0  0  0  0  0  0  0  0
  1  2  1  0  0  0  0
  1  3  2  0  0  0  0
  1  4  1  0  0  0  0
  4  5  1  0  0  0  0
  6  7  1  0  0  0  0
  7  8  2  0  0  0  0
  7  9  1  0  0  0  0
 10 11  1  0  0  0  0
 11 12  1  0  0  0  0
 12 13  2  0  0  0  0
 13 14  1  0  0  0  0
 14 15  2  0  0  0  0
 15 16  1  0  0  0  0
 11 16  2  0  0  0  0
  9 10  1  0  0  0  0
  2  6  1  0  0  0  0
M  END
> <Value>
4.494850021680094

> <Relation>
=

> <SourceURI>
mol:CHEMBL2036143

$$$$

Generated by Molecular Materials Informatics

 17 17  0  0  0  0  0  0  0  0999 V2000
   -3.8937    0.0165    0.0000 C   0  0  0  0  0  0  0  0  0  0  0  0
   -2.5946    0.7665    0.0000 C   0  0  0  0  0  0  0  0  0  0  0  0
   -3.8937   -1.4834    0.0000 O   0  0  0  0  0  0  0  0  0  0  0  0
   -5.1928    0.7665    0.0000 N   0  0  0  0  0  0  0  0  0  0  0  0
   -6.4918    0.0165    0.0000 O   0  0  0  0  0  0  0  0  0  0  0  0
   -1.3021    0.0056    0.0000 N   0  0  0  0  0  0  0  0  0  0  0  0
    0.0031    0.7445    0.0000 C   0  0  0  0  0  0  0  0  0  0  0  0
    0.0160    2.2443    0.0000 O   0  0  0  0  0  0  0  0  0  0  0  0
    1.2958   -0.0165    0.0000 N   0  0  0  0  0  0  0  0  0  0  0  0
    2.5946    0.7334    0.0000 C   0  0  0  0  0  0  0  0  0  0  0  0
    3.8937   -0.0165    0.0000 C   0  0  0  0  0  0  0  0  0  0  0  0
    5.1928    0.7334    0.0000 C   0  0  0  0  0  0  0  0  0  0  0  0
    6.4918   -0.0165    0.0000 C   0  0  0  0  0  0  0  0  0  0  0  0
    6.4918   -1.5165    0.0000 C   0  0  0  0  0  0  0  0  0  0  0  0
    5.1928   -2.2665    0.0000 C   0  0  0  0  0  0  0  0  0  0  0  0
    3.8937   -1.5165    0.0000 C   0  0  0  0  0  0  0  0  0  0  0  0
   -2.5883    2.2665    0.0000 C   0  0  0  0  0  0  0  0  0  0  0  0
  1  2  1  0  0  0  0
  1  3  2  0  0  0  0
  1  4  1  0  0  0  0
  4  5  1  0  0  0  0
  6  7  1  0  0  0  0
  7  8  2  0  0  0  0
  7  9  1  0  0  0  0
 10 11  1  0  0  0  0
 11 12  1  0  0  0  0
 12 13  2  0  0  0  0
 13 14  1  0  0  0  0
 14 15  2  0  0  0  0
 15 16  1  0  0  0  0
 11 16  2  0  0  0  0
  9 10  1  0  0  0  0
  2  6  1  0  0  0  0
  2 17  1  6  0  0  0
M  END
> <Value>
4.6777807052660805

> <Relation>
=

> <SourceURI>
mol:CHEMBL2036144

$$$$

Generated by Molecular Materials Informatics

 19 19  0  0  0  0  0  0  0  0999 V2000
   -3.8937   -0.1522    0.0000 C   0  0  0  0  0  0  0  0  0  0  0  0
   -2.5946    0.5978    0.0000 C   0  0  0  0  0  0  0  0  0  0  0  0
   -3.8937   -1.6521    0.0000 O   0  0  0  0  0  0  0  0  0  0  0  0
   -5.1928    0.5978    0.0000 N   0  0  0  0  0  0  0  0  0  0  0  0
   -6.4918   -0.1522    0.0000 O   0  0  0  0  0  0  0  0  0  0  0  0
   -1.3021   -0.1631    0.0000 N   0  0  0  0  0  0  0  0  0  0  0  0
    0.0031    0.5758    0.0000 C   0  0  0  0  0  0  0  0  0  0  0  0
    0.0160    2.0756    0.0000 O   0  0  0  0  0  0  0  0  0  0  0  0
    1.2958   -0.1853    0.0000 N   0  0  0  0  0  0  0  0  0  0  0  0
    2.5946    0.5647    0.0000 C   0  0  0  0  0  0  0  0  0  0  0  0
    3.8937   -0.1853    0.0000 C   0  0  0  0  0  0  0  0  0  0  0  0
    5.1928    0.5647    0.0000 C   0  0  0  0  0  0  0  0  0  0  0  0
    6.4918   -0.1853    0.0000 C   0  0  0  0  0  0  0  0  0  0  0  0
    6.4918   -1.6852    0.0000 C   0  0  0  0  0  0  0  0  0  0  0  0
    5.1928   -2.4352    0.0000 C   0  0  0  0  0  0  0  0  0  0  0  0
    3.8937   -1.6852    0.0000 C   0  0  0  0  0  0  0  0  0  0  0  0
   -1.2892    2.8477    0.0000 C   0  0  0  0  0  0  0  0  0  0  0  0
   -2.5883    2.0977    0.0000 C   0  0  0  0  0  0  0  0  0  0  0  0
   -3.8873    2.8477    0.0000 C   0  0  0  0  0  0  0  0  0  0  0  0
  1  2  1  0  0  0  0
  1  3  2  0  0  0  0
  1  4  1  0  0  0  0
  4  5  1  0  0  0  0
  6  7  1  0  0  0  0
  7  8  2  0  0  0  0
  7  9  1  0  0  0  0
 10 11  1  0  0  0  0
 11 12  1  0  0  0  0
 12 13  2  0  0  0  0
 13 14  1  0  0  0  0
 14 15  2  0  0  0  0
 15 16  1  0  0  0  0
 11 16  2  0  0  0  0
  9 10  1  0  0  0  0
  2  6  1  0  0  0  0
  2 18  1  6  0  0  0
 18 17  1  0  0  0  0
 18 19  1  0  0  0  0
M  END
> <Value>
4.769551078621726

> <Relation>
=

> <SourceURI>
mol:CHEMBL2036145

$$$$

Generated by Molecular Materials Informatics

 20 20  0  0  0  0  0  0  0  0999 V2000
    0.6756  -22.8902    0.0000 C   0  0  0  0  0  0  0  0  0  0  0  0
    1.9772  -22.1402    0.0000 C   0  0  0  0  0  0  0  0  0  0  0  0
    0.6756  -24.3902    0.0000 O   0  0  0  0  0  0  0  0  0  0  0  0
   -0.6259  -22.1402    0.0000 N   0  0  0  0  0  0  0  0  0  0  0  0
   -1.9275  -22.8902    0.0000 O   0  0  0  0  0  0  0  0  0  0  0  0
    3.2691  -22.8993    0.0000 N   0  0  0  0  0  0  0  0  0  0  0  0
    4.5727  -22.1585    0.0000 C   0  0  0  0  0  0  0  0  0  0  0  0
    4.5845  -20.6587    0.0000 O   0  0  0  0  0  0  0  0  0  0  0  0
    5.8645  -22.9253    0.0000 N   0  0  0  0  0  0  0  0  0  0  0  0
    7.1660  -22.1753    0.0000 C   0  0  0  0  0  0  0  0  0  0  0  0
    8.4600  -22.9253    0.0000 C   0  0  0  0  0  0  0  0  0  0  0  0
    9.7616  -22.1753    0.0000 C   0  0  0  0  0  0  0  0  0  0  0  0
   11.0556  -22.9253    0.0000 C   0  0  0  0  0  0  0  0  0  0  0  0
   11.0556  -24.4253    0.0000 C   0  0  0  0  0  0  0  0  0  0  0  0
    9.7616  -25.1752    0.0000 C   0  0  0  0  0  0  0  0  0  0  0  0
    8.4600  -24.4253    0.0000 C   0  0  0  0  0  0  0  0  0  0  0  0
    1.9794  -20.6402    0.0000 C   0  0  0  0  0  0  0  0  0  0  0  0
    3.2794  -19.8920    0.0000 C   0  0  0  0  0  0  0  0  0  0  0  0
    0.6814  -19.8883    0.0000 C   0  0  0  0  0  0  0  0  0  0  0  0
    0.6834  -18.3883    0.0000 C   0  0  0  0  0  0  0  0  0  0  0  0
  1  4  1  0  0  0  0
  4  5  1  0  0  0  0
  6  7  1  0  0  0  0
  7  8  2  0  0  0  0
  7  9  1  0  0  0  0
 10 11  1  0  0  0  0
 11 12  1  0  0  0  0
 12 13  2  0  0  0  0
 13 14  1  0  0  0  0
 14 15  2  0  0  0  0
 15 16  1  0  0  0  0
 11 16  2  0  0  0  0
  9 10  1  0  0  0  0
  2  6  1  6  0  0  0
  2 17  1  0  0  0  0
 17 18  1  6  0  0  0
  1  2  1  0  0  0  0
 17 19  1  0  0  0  0
  1  3  2  0  0  0  0
 19 20  1  0  0  0  0
M  END
> <Value>
5.3872161432802645

> <Relation>
=

> <SourceURI>
mol:CHEMBL2036146

$$$$

Generated by Molecular Materials Informatics

 23 24  0  0  0  0  0  0  0  0999 V2000
    0.6756  -23.0585    0.0000 C   0  0  0  0  0  0  0  0  0  0  0  0
    1.9772  -22.3085    0.0000 C   0  0  0  0  0  0  0  0  0  0  0  0
    0.6756  -24.5585    0.0000 O   0  0  0  0  0  0  0  0  0  0  0  0
   -0.6259  -22.3085    0.0000 N   0  0  0  0  0  0  0  0  0  0  0  0
   -1.9275  -23.0585    0.0000 O   0  0  0  0  0  0  0  0  0  0  0  0
    3.2691  -23.0676    0.0000 N   0  0  0  0  0  0  0  0  0  0  0  0
    4.5727  -22.3269    0.0000 C   0  0  0  0  0  0  0  0  0  0  0  0
    4.5845  -20.8271    0.0000 O   0  0  0  0  0  0  0  0  0  0  0  0
    5.8645  -23.0936    0.0000 N   0  0  0  0  0  0  0  0  0  0  0  0
    7.1660  -22.3436    0.0000 C   0  0  0  0  0  0  0  0  0  0  0  0
    8.4600  -23.0936    0.0000 C   0  0  0  0  0  0  0  0  0  0  0  0
    9.7616  -22.3436    0.0000 C   0  0  0  0  0  0  0  0  0  0  0  0
   11.0556  -23.0936    0.0000 C   0  0  0  0  0  0  0  0  0  0  0  0
   11.0556  -24.5936    0.0000 C   0  0  0  0  0  0  0  0  0  0  0  0
    9.7616  -25.3436    0.0000 C   0  0  0  0  0  0  0  0  0  0  0  0
    8.4600  -24.5936    0.0000 C   0  0  0  0  0  0  0  0  0  0  0  0
    1.9794  -20.8085    0.0000 C   0  0  0  0  0  0  0  0  0  0  0  0
    0.6814  -20.0567    0.0000 C   0  0  0  0  0  0  0  0  0  0  0  0
    0.6874  -18.5600    0.0000 C   0  0  0  0  0  0  0  0  0  0  0  0
   -0.6091  -17.8084    0.0000 C   0  0  0  0  0  0  0  0  0  0  0  0
   -1.9109  -18.5567    0.0000 C   0  0  0  0  0  0  0  0  0  0  0  0
   -1.9082  -20.0644    0.0000 C   0  0  0  0  0  0  0  0  0  0  0  0
   -0.6108  -20.8093    0.0000 C   0  0  0  0  0  0  0  0  0  0  0  0
  7  8  2  0  0  0  0
  7  9  1  0  0  0  0
 10 11  1  0  0  0  0
 11 12  1  0  0  0  0
 12 13  2  0  0  0  0
 13 14  1  0  0  0  0
 14 15  2  0  0  0  0
 15 16  1  0  0  0  0
 11 16  2  0  0  0  0
  9 10  1  0  0  0  0
  2  6  1  0  0  0  0
  2 17  1  6  0  0  0
 17 18  1  0  0  0  0
  1  2  1  0  0  0  0
 18 19  2  0  0  0  0
  1  3  2  0  0  0  0
 19 20  1  0  0  0  0
  1  4  1  0  0  0  0
 20 21  2  0  0  0  0
  4  5  1  0  0  0  0
 21 22  1  0  0  0  0
  6  7  1  0  0  0  0
 22 23  2  0  0  0  0
 23 18  1  0  0  0  0
M  END
> <Value>
5.251811972993799

> <Relation>
=

> <SourceURI>
mol:CHEMBL2036147

$$$$

Generated by Molecular Materials Informatics

 20 20  0  0  0  0  0  0  0  0999 V2000
   10.0173  -23.3718    0.0000 C   0  0  0  0  0  0  0  0  0  0  0  0
   11.3189  -22.6218    0.0000 C   0  0  0  0  0  0  0  0  0  0  0  0
   10.0173  -24.8718    0.0000 O   0  0  0  0  0  0  0  0  0  0  0  0
    8.7157  -22.6218    0.0000 N   0  0  0  0  0  0  0  0  0  0  0  0
    7.4142  -23.3718    0.0000 O   0  0  0  0  0  0  0  0  0  0  0  0
   12.6108  -23.3809    0.0000 N   0  0  0  0  0  0  0  0  0  0  0  0
   13.9142  -22.6402    0.0000 C   0  0  0  0  0  0  0  0  0  0  0  0
   13.9260  -21.1404    0.0000 O   0  0  0  0  0  0  0  0  0  0  0  0
   15.2060  -23.4069    0.0000 N   0  0  0  0  0  0  0  0  0  0  0  0
   16.5077  -22.6569    0.0000 C   0  0  0  0  0  0  0  0  0  0  0  0
   17.8017  -23.4069    0.0000 C   0  0  0  0  0  0  0  0  0  0  0  0
   19.1033  -22.6569    0.0000 C   0  0  0  0  0  0  0  0  0  0  0  0
   20.3973  -23.4069    0.0000 C   0  0  0  0  0  0  0  0  0  0  0  0
   20.3973  -24.9069    0.0000 C   0  0  0  0  0  0  0  0  0  0  0  0
   19.1033  -25.6569    0.0000 C   0  0  0  0  0  0  0  0  0  0  0  0
   17.8017  -24.9069    0.0000 C   0  0  0  0  0  0  0  0  0  0  0  0
   11.3209  -21.1218    0.0000 C   0  0  0  0  0  0  0  0  0  0  0  0
   10.0229  -20.3700    0.0000 C   0  0  0  0  0  0  0  0  0  0  0  0
   10.0251  -18.8700    0.0000 S   0  0  0  0  0  0  0  0  0  0  0  0
    8.7271  -18.1182    0.0000 C   0  0  0  0  0  0  0  0  0  0  0  0
  1  4  1  0  0  0  0
  4  5  1  0  0  0  0
  6  7  1  0  0  0  0
  7  8  2  0  0  0  0
  7  9  1  0  0  0  0
 10 11  1  0  0  0  0
 11 12  1  0  0  0  0
 12 13  2  0  0  0  0
 13 14  1  0  0  0  0
 14 15  2  0  0  0  0
 15 16  1  0  0  0  0
 11 16  2  0  0  0  0
  9 10  1  0  0  0  0
  2  6  1  0  0  0  0
  2 17  1  6  0  0  0
 17 18  1  0  0  0  0
  1  2  1  0  0  0  0
 18 19  1  0  0  0  0
  1  3  2  0  0  0  0
 19 20  1  0  0  0  0
M  END
> <Value>
5.42021640338319

> <Relation>
=

> <SourceURI>
mol:CHEMBL2036148

$$$$

Generated by Molecular Materials Informatics

 17 17  0  0  0  0  0  0  0  0999 V2000
   -4.5464   -0.7500    0.0000 C   0  0  0  0  0  0  0  0  0  0  0  0
   -3.2475    0.0000    0.0000 C   0  0  0  0  0  0  0  0  0  0  0  0
   -4.5464   -2.2499    0.0000 O   0  0  0  0  0  0  0  0  0  0  0  0
   -5.8455    0.0000    0.0000 N   0  0  0  0  0  0  0  0  0  0  0  0
   -7.1445   -0.7500    0.0000 O   0  0  0  0  0  0  0  0  0  0  0  0
   -1.9485   -0.7500    0.0000 N   0  0  0  0  0  0  0  0  0  0  0  0
   -0.6494    0.0000    0.0000 C   0  0  0  0  0  0  0  0  0  0  0  0
   -0.6494    1.5000    0.0000 O   0  0  0  0  0  0  0  0  0  0  0  0
    0.6494   -0.7500    0.0000 N   0  0  0  0  0  0  0  0  0  0  0  0
    1.9485    0.0000    0.0000 C   0  0  0  0  0  0  0  0  0  0  0  0
    3.2475   -0.7500    0.0000 C   0  0  0  0  0  0  0  0  0  0  0  0
    4.5464    0.0000    0.0000 C   0  0  0  0  0  0  0  0  0  0  0  0
    4.5464    1.5000    0.0000 C   0  0  0  0  0  0  0  0  0  0  0  0
    5.8455    2.2499    0.0000 C   0  0  0  0  0  0  0  0  0  0  0  0
    7.1445    1.5000    0.0000 C   0  0  0  0  0  0  0  0  0  0  0  0
    7.1445    0.0000    0.0000 C   0  0  0  0  0  0  0  0  0  0  0  0
    5.8455   -0.7500    0.0000 C   0  0  0  0  0  0  0  0  0  0  0  0
  1  2  1  0  0  0  0
  1  3  2  0  0  0  0
  1  4  1  0  0  0  0
  4  5  1  0  0  0  0
  6  7  1  0  0  0  0
  7  8  2  0  0  0  0
  7  9  1  0  0  0  0
 10 11  1  0  0  0  0
 11 12  1  0  0  0  0
 12 13  1  0  0  0  0
 13 14  2  0  0  0  0
 14 15  1  0  0  0  0
 15 16  2  0  0  0  0
 16 17  1  0  0  0  0
 12 17  2  0  0  0  0
  9 10  1  0  0  0  0
  2  6  1  0  0  0  0
M  END
> <Value>
4.2839966563652006

> <Relation>
=

> <SourceURI>
mol:CHEMBL2036149

$$$$

Generated by Molecular Materials Informatics

 18 18  0  0  0  0  0  0  0  0999 V2000
   -4.5464   -0.7500    0.0000 C   0  0  0  0  0  0  0  0  0  0  0  0
   -4.5464   -2.2499    0.0000 O   0  0  0  0  0  0  0  0  0  0  0  0
   -5.8455    0.0000    0.0000 N   0  0  0  0  0  0  0  0  0  0  0  0
   -7.1445   -0.7500    0.0000 O   0  0  0  0  0  0  0  0  0  0  0  0
   -1.9485   -0.7500    0.0000 N   0  0  0  0  0  0  0  0  0  0  0  0
   -0.6494    0.0000    0.0000 C   0  0  0  0  0  0  0  0  0  0  0  0
   -0.6494    1.5000    0.0000 O   0  0  0  0  0  0  0  0  0  0  0  0
    0.6494   -0.7500    0.0000 N   0  0  0  0  0  0  0  0  0  0  0  0
    1.9485    0.0000    0.0000 C   0  0  0  0  0  0  0  0  0  0  0  0
    3.2475   -0.7500    0.0000 C   0  0  0  0  0  0  0  0  0  0  0  0
    4.5464    0.0000    0.0000 C   0  0  0  0  0  0  0  0  0  0  0  0
    4.5464    1.5000    0.0000 C   0  0  0  0  0  0  0  0  0  0  0  0
    5.8455    2.2499    0.0000 C   0  0  0  0  0  0  0  0  0  0  0  0
    7.1445    1.5000    0.0000 C   0  0  0  0  0  0  0  0  0  0  0  0
    7.1445    0.0000    0.0000 C   0  0  0  0  0  0  0  0  0  0  0  0
    5.8455   -0.7500    0.0000 C   0  0  0  0  0  0  0  0  0  0  0  0
   -3.2475    0.0000    0.0000 C   0  0  0  0  0  0  0  0  0  0  0  0
   -3.2475    1.5000    0.0000 C   0  0  0  0  0  0  0  0  0  0  0  0
 17  1  1  0  0  0  0
  1  2  2  0  0  0  0
  1  3  1  0  0  0  0
  3  4  1  0  0  0  0
  5  6  1  0  0  0  0
  6  7  2  0  0  0  0
  6  8  1  0  0  0  0
  9 10  1  0  0  0  0
 10 11  1  0  0  0  0
 11 12  1  0  0  0  0
 12 13  2  0  0  0  0
 13 14  1  0  0  0  0
 14 15  2  0  0  0  0
 15 16  1  0  0  0  0
 11 16  2  0  0  0  0
  8  9  1  0  0  0  0
 17  5  1  0  0  0  0
 17 18  1  6  0  0  0
M  END
> <Value>
4.6777807052660805

> <Relation>
=

> <SourceURI>
mol:CHEMBL2036150

$$$$

Generated by Molecular Materials Informatics

 20 20  0  0  0  0  0  0  0  0999 V2000
   -4.5464   -0.7500    0.0000 C   0  0  0  0  0  0  0  0  0  0  0  0
   -4.5464   -2.2499    0.0000 O   0  0  0  0  0  0  0  0  0  0  0  0
   -5.8455    0.0000    0.0000 N   0  0  0  0  0  0  0  0  0  0  0  0
   -7.1445   -0.7500    0.0000 O   0  0  0  0  0  0  0  0  0  0  0  0
   -1.9485   -0.7500    0.0000 N   0  0  0  0  0  0  0  0  0  0  0  0
   -0.6494    0.0000    0.0000 C   0  0  0  0  0  0  0  0  0  0  0  0
   -0.6494    1.5000    0.0000 O   0  0  0  0  0  0  0  0  0  0  0  0
    0.6494   -0.7500    0.0000 N   0  0  0  0  0  0  0  0  0  0  0  0
    1.9485    0.0000    0.0000 C   0  0  0  0  0  0  0  0  0  0  0  0
    3.2475   -0.7500    0.0000 C   0  0  0  0  0  0  0  0  0  0  0  0
    4.5464    0.0000    0.0000 C   0  0  0  0  0  0  0  0  0  0  0  0
    4.5464    1.5000    0.0000 C   0  0  0  0  0  0  0  0  0  0  0  0
    5.8455    2.2499    0.0000 C   0  0  0  0  0  0  0  0  0  0  0  0
    7.1445    1.5000    0.0000 C   0  0  0  0  0  0  0  0  0  0  0  0
    7.1445    0.0000    0.0000 C   0  0  0  0  0  0  0  0  0  0  0  0
    5.8455   -0.7500    0.0000 C   0  0  0  0  0  0  0  0  0  0  0  0
   -3.2475    0.0000    0.0000 C   0  0  0  0  0  0  0  0  0  0  0  0
   -1.9485    2.2499    0.0000 C   0  0  0  0  0  0  0  0  0  0  0  0
   -3.2475    1.5000    0.0000 C   0  0  0  0  0  0  0  0  0  0  0  0
   -4.5466    2.2499    0.0000 C   0  0  0  0  0  0  0  0  0  0  0  0
 17  1  1  0  0  0  0
  1  2  2  0  0  0  0
  1  3  1  0  0  0  0
  3  4  1  0  0  0  0
  5  6  1  0  0  0  0
  6  7  2  0  0  0  0
  6  8  1  0  0  0  0
  9 10  1  0  0  0  0
 10 11  1  0  0  0  0
 11 12  1  0  0  0  0
 12 13  2  0  0  0  0
 13 14  1  0  0  0  0
 14 15  2  0  0  0  0
 15 16  1  0  0  0  0
 11 16  2  0  0  0  0
  8  9  1  0  0  0  0
 17  5  1  0  0  0  0
 17 19  1  6  0  0  0
 19 18  1  0  0  0  0
 19 20  1  0  0  0  0
M  END
> <Value>
4.0

> <Relation>
<

> <SourceURI>
mol:CHEMBL2036151

$$$$

Generated by Molecular Materials Informatics

 21 21  0  0  0  0  0  0  0  0999 V2000
   -4.5464   -1.0875    0.0000 C   0  0  0  0  0  0  0  0  0  0  0  0
   -4.5464   -2.5874    0.0000 O   0  0  0  0  0  0  0  0  0  0  0  0
   -5.8455   -0.3375    0.0000 N   0  0  0  0  0  0  0  0  0  0  0  0
   -7.1445   -1.0875    0.0000 O   0  0  0  0  0  0  0  0  0  0  0  0
   -1.9485   -1.0875    0.0000 N   0  0  0  0  0  0  0  0  0  0  0  0
   -0.6494   -0.3375    0.0000 C   0  0  0  0  0  0  0  0  0  0  0  0
   -0.6494    1.1625    0.0000 O   0  0  0  0  0  0  0  0  0  0  0  0
    0.6494   -1.0875    0.0000 N   0  0  0  0  0  0  0  0  0  0  0  0
    1.9485   -0.3375    0.0000 C   0  0  0  0  0  0  0  0  0  0  0  0
    3.2475   -1.0875    0.0000 C   0  0  0  0  0  0  0  0  0  0  0  0
    4.5464   -0.3375    0.0000 C   0  0  0  0  0  0  0  0  0  0  0  0
    4.5464    1.1625    0.0000 C   0  0  0  0  0  0  0  0  0  0  0  0
    5.8455    1.9125    0.0000 C   0  0  0  0  0  0  0  0  0  0  0  0
    7.1445    1.1625    0.0000 C   0  0  0  0  0  0  0  0  0  0  0  0
    7.1445   -0.3375    0.0000 C   0  0  0  0  0  0  0  0  0  0  0  0
    5.8455   -1.0875    0.0000 C   0  0  0  0  0  0  0  0  0  0  0  0
   -3.2475   -0.3375    0.0000 C   0  0  0  0  0  0  0  0  0  0  0  0
   -3.2475    1.1625    0.0000 C   0  0  0  0  0  0  0  0  0  0  0  0
   -4.5466    3.4124    0.0000 C   0  0  0  0  0  0  0  0  0  0  0  0
   -4.5466    1.9125    0.0000 C   0  0  0  0  0  0  0  0  0  0  0  0
   -5.8455    1.1625    0.0000 C   0  0  0  0  0  0  0  0  0  0  0  0
 17  1  1  0  0  0  0
  1  2  2  0  0  0  0
  1  3  1  0  0  0  0
  3  4  1  0  0  0  0
  5  6  1  0  0  0  0
  6  7  2  0  0  0  0
  6  8  1  0  0  0  0
  9 10  1  0  0  0  0
 10 11  1  0  0  0  0
 11 12  1  0  0  0  0
 12 13  2  0  0  0  0
 13 14  1  0  0  0  0
 14 15  2  0  0  0  0
 15 16  1  0  0  0  0
 11 16  2  0  0  0  0
  8  9  1  0  0  0  0
 17  5  1  0  0  0  0
 17 18  1  6  0  0  0
 18 20  1  0  0  0  0
 20 19  1  0  0  0  0
 20 21  1  0  0  0  0
M  END
> <Value>
5.958607314841775

> <Relation>
=

> <SourceURI>
mol:CHEMBL2036152

$$$$

Generated by Molecular Materials Informatics

 21 21  0  0  0  0  0  0  0  0999 V2000
   -4.5464   -1.0875    0.0000 C   0  0  0  0  0  0  0  0  0  0  0  0
   -4.5464   -2.5874    0.0000 O   0  0  0  0  0  0  0  0  0  0  0  0
   -5.8455   -0.3375    0.0000 N   0  0  0  0  0  0  0  0  0  0  0  0
   -7.1445   -1.0875    0.0000 O   0  0  0  0  0  0  0  0  0  0  0  0
   -1.9485   -1.0875    0.0000 N   0  0  0  0  0  0  0  0  0  0  0  0
   -0.6494   -0.3375    0.0000 C   0  0  0  0  0  0  0  0  0  0  0  0
   -0.6494    1.1625    0.0000 O   0  0  0  0  0  0  0  0  0  0  0  0
    0.6494   -1.0875    0.0000 N   0  0  0  0  0  0  0  0  0  0  0  0
    1.9485   -0.3375    0.0000 C   0  0  0  0  0  0  0  0  0  0  0  0
    3.2475   -1.0875    0.0000 C   0  0  0  0  0  0  0  0  0  0  0  0
    4.5464   -0.3375    0.0000 C   0  0  0  0  0  0  0  0  0  0  0  0
    4.5464    1.1625    0.0000 C   0  0  0  0  0  0  0  0  0  0  0  0
    5.8455    1.9125    0.0000 C   0  0  0  0  0  0  0  0  0  0  0  0
    7.1445    1.1625    0.0000 C   0  0  0  0  0  0  0  0  0  0  0  0
    7.1445   -0.3375    0.0000 C   0  0  0  0  0  0  0  0  0  0  0  0
    5.8455   -1.0875    0.0000 C   0  0  0  0  0  0  0  0  0  0  0  0
   -3.2475   -0.3375    0.0000 C   0  0  0  0  0  0  0  0  0  0  0  0
   -1.9485    1.9125    0.0000 C   0  0  0  0  0  0  0  0  0  0  0  0
   -3.2475    1.1625    0.0000 C   0  0  0  0  0  0  0  0  0  0  0  0
   -4.5466    1.9125    0.0000 C   0  0  0  0  0  0  0  0  0  0  0  0
   -4.5466    3.4124    0.0000 C   0  0  0  0  0  0  0  0  0  0  0  0
 17  1  1  0  0  0  0
  1  2  2  0  0  0  0
  1  3  1  0  0  0  0
  3  4  1  0  0  0  0
  5  6  1  0  0  0  0
  6  7  2  0  0  0  0
  6  8  1  0  0  0  0
  9 10  1  0  0  0  0
 10 11  1  0  0  0  0
 11 12  1  0  0  0  0
 12 13  2  0  0  0  0
 13 14  1  0  0  0  0
 14 15  2  0  0  0  0
 15 16  1  0  0  0  0
 11 16  2  0  0  0  0
  8  9  1  0  0  0  0
 17  5  1  6  0  0  0
 17 19  1  0  0  0  0
 19 18  1  6  0  0  0
 19 20  1  0  0  0  0
 20 21  1  0  0  0  0
M  END
> <Value>
4.0

> <Relation>
<

> <SourceURI>
mol:CHEMBL2036153

$$$$

Generated by Molecular Materials Informatics

 24 25  0  0  0  0  0  0  0  0999 V2000
    8.3910  -23.7607    0.0000 C   0  0  0  0  0  0  0  0  0  0  0  0
    8.3910  -25.2660    0.0000 O   0  0  0  0  0  0  0  0  0  0  0  0
    7.0915  -23.0118    0.0000 N   0  0  0  0  0  0  0  0  0  0  0  0
    5.7918  -23.7607    0.0000 O   0  0  0  0  0  0  0  0  0  0  0  0
   10.9978  -23.7607    0.0000 N   0  0  0  0  0  0  0  0  0  0  0  0
   12.2974  -23.0118    0.0000 C   0  0  0  0  0  0  0  0  0  0  0  0
   12.2974  -21.5067    0.0000 O   0  0  0  0  0  0  0  0  0  0  0  0
   13.5967  -23.7607    0.0000 N   0  0  0  0  0  0  0  0  0  0  0  0
   14.8965  -23.0118    0.0000 C   0  0  0  0  0  0  0  0  0  0  0  0
   16.2037  -23.7607    0.0000 C   0  0  0  0  0  0  0  0  0  0  0  0
   17.5030  -23.0118    0.0000 C   0  0  0  0  0  0  0  0  0  0  0  0
   17.5030  -21.5067    0.0000 C   0  0  0  0  0  0  0  0  0  0  0  0
   18.8026  -20.7577    0.0000 C   0  0  0  0  0  0  0  0  0  0  0  0
   20.1025  -21.5067    0.0000 C   0  0  0  0  0  0  0  0  0  0  0  0
   20.1025  -23.0118    0.0000 C   0  0  0  0  0  0  0  0  0  0  0  0
   18.8026  -23.7607    0.0000 C   0  0  0  0  0  0  0  0  0  0  0  0
    9.6906  -23.0118    0.0000 C   0  0  0  0  0  0  0  0  0  0  0  0
    9.6906  -21.5067    0.0000 C   0  0  0  0  0  0  0  0  0  0  0  0
    8.3933  -20.7577    0.0000 C   0  0  0  0  0  0  0  0  0  0  0  0
    8.3983  -19.2646    0.0000 C   0  0  0  0  0  0  0  0  0  0  0  0
    7.1028  -18.5159    0.0000 C   0  0  0  0  0  0  0  0  0  0  0  0
    5.8038  -19.2648    0.0000 C   0  0  0  0  0  0  0  0  0  0  0  0
    5.8088  -20.7705    0.0000 C   0  0  0  0  0  0  0  0  0  0  0  0
    7.1053  -21.5125    0.0000 C   0  0  0  0  0  0  0  0  0  0  0  0
  6  7  2  0  0  0  0
  6  8  1  0  0  0  0
  9 10  1  0  0  0  0
 10 11  1  0  0  0  0
 11 12  1  0  0  0  0
 12 13  2  0  0  0  0
 13 14  1  0  0  0  0
 14 15  2  0  0  0  0
 15 16  1  0  0  0  0
 11 16  2  0  0  0  0
  8  9  1  0  0  0  0
 17  5  1  0  0  0  0
 17 18  1  6  0  0  0
 18 19  1  0  0  0  0
 17  1  1  0  0  0  0
 19 20  2  0  0  0  0
  1  2  2  0  0  0  0
 20 21  1  0  0  0  0
  1  3  1  0  0  0  0
 21 22  2  0  0  0  0
  3  4  1  0  0  0  0
 22 23  1  0  0  0  0
  5  6  1  0  0  0  0
 23 24  2  0  0  0  0
 24 19  1  0  0  0  0
M  END
> <Value>
5.187086643357144

> <Relation>
=

> <SourceURI>
mol:CHEMBL2036154

$$$$

Generated by Molecular Materials Informatics

 21 21  0  0  0  0  0  0  0  0999 V2000
    9.3239  -23.7923    0.0000 C   0  0  0  0  0  0  0  0  0  0  0  0
    9.3239  -25.2977    0.0000 O   0  0  0  0  0  0  0  0  0  0  0  0
    8.0243  -23.0434    0.0000 N   0  0  0  0  0  0  0  0  0  0  0  0
    6.7245  -23.7923    0.0000 O   0  0  0  0  0  0  0  0  0  0  0  0
   11.9305  -23.7923    0.0000 N   0  0  0  0  0  0  0  0  0  0  0  0
   13.2301  -23.0434    0.0000 C   0  0  0  0  0  0  0  0  0  0  0  0
   13.2301  -21.5380    0.0000 O   0  0  0  0  0  0  0  0  0  0  0  0
   14.5296  -23.7923    0.0000 N   0  0  0  0  0  0  0  0  0  0  0  0
   15.8293  -23.0434    0.0000 C   0  0  0  0  0  0  0  0  0  0  0  0
   17.1366  -23.7923    0.0000 C   0  0  0  0  0  0  0  0  0  0  0  0
   18.4360  -23.0434    0.0000 C   0  0  0  0  0  0  0  0  0  0  0  0
   18.4360  -21.5380    0.0000 C   0  0  0  0  0  0  0  0  0  0  0  0
   19.7358  -20.7893    0.0000 C   0  0  0  0  0  0  0  0  0  0  0  0
   21.0352  -21.5380    0.0000 C   0  0  0  0  0  0  0  0  0  0  0  0
   21.0352  -23.0434    0.0000 C   0  0  0  0  0  0  0  0  0  0  0  0
   19.7358  -23.7923    0.0000 C   0  0  0  0  0  0  0  0  0  0  0  0
   10.6233  -23.0434    0.0000 C   0  0  0  0  0  0  0  0  0  0  0  0
   10.6233  -21.5380    0.0000 C   0  0  0  0  0  0  0  0  0  0  0  0
    9.3261  -20.7891    0.0000 C   0  0  0  0  0  0  0  0  0  0  0  0
    9.3261  -19.2913    0.0000 S   0  0  0  0  0  0  0  0  0  0  0  0
    8.0288  -18.5424    0.0000 C   0  0  0  0  0  0  0  0  0  0  0  0
  1  3  1  0  0  0  0
  3  4  1  0  0  0  0
  5  6  1  0  0  0  0
  6  7  2  0  0  0  0
  6  8  1  0  0  0  0
  9 10  1  0  0  0  0
 10 11  1  0  0  0  0
 11 12  1  0  0  0  0
 12 13  2  0  0  0  0
 13 14  1  0  0  0  0
 14 15  2  0  0  0  0
 15 16  1  0  0  0  0
 11 16  2  0  0  0  0
  8  9  1  0  0  0  0
 17  5  1  0  0  0  0
 17 18  1  6  0  0  0
 18 19  1  0  0  0  0
 17  1  1  0  0  0  0
 19 20  1  0  0  0  0
  1  2  2  0  0  0  0
 20 21  1  0  0  0  0
M  END
> <Value>
4.0

> <Relation>
<

> <SourceURI>
mol:CHEMBL2036155

$$$$

Generated by Molecular Materials Informatics

 19 19  0  0  0  0  0  0  0  0999 V2000
    9.9142  -23.6285    0.0000 C   0  0  0  0  0  0  0  0  0  0  0  0
    9.9142  -25.1338    0.0000 O   0  0  0  0  0  0  0  0  0  0  0  0
    8.6144  -22.8797    0.0000 N   0  0  0  0  0  0  0  0  0  0  0  0
    7.3147  -23.6285    0.0000 O   0  0  0  0  0  0  0  0  0  0  0  0
   12.5208  -23.6285    0.0000 N   0  0  0  0  0  0  0  0  0  0  0  0
   13.8207  -22.8797    0.0000 C   0  0  0  0  0  0  0  0  0  0  0  0
   13.8207  -21.3742    0.0000 O   0  0  0  0  0  0  0  0  0  0  0  0
   15.1201  -23.6285    0.0000 N   0  0  0  0  0  0  0  0  0  0  0  0
   16.4199  -22.8797    0.0000 C   0  0  0  0  0  0  0  0  0  0  0  0
   11.2136  -22.8797    0.0000 C   0  0  0  0  0  0  0  0  0  0  0  0
   11.2136  -21.3742    0.0000 C   0  0  0  0  0  0  0  0  0  0  0  0
    9.9164  -20.6253    0.0000 C   0  0  0  0  0  0  0  0  0  0  0  0
   17.7089  -23.6359    0.0000 C   0  0  0  0  0  0  0  0  0  0  0  0
   19.0048  -22.8934    0.0000 C   0  0  0  0  0  0  0  0  0  0  0  0
   19.0139  -21.3927    0.0000 C   0  0  0  0  0  0  0  0  0  0  0  0
   17.7156  -20.6374    0.0000 C   0  0  0  0  0  0  0  0  0  0  0  0
   16.4084  -21.3831    0.0000 C   0  0  0  0  0  0  0  0  0  0  0  0
    9.9164  -19.1274    0.0000 C   0  0  0  0  0  0  0  0  0  0  0  0
    8.6192  -21.3742    0.0000 C   0  0  0  0  0  0  0  0  0  0  0  0
  8  9  1  0  0  0  0
 10  5  1  0  0  0  0
 10 11  1  6  0  0  0
 11 12  1  0  0  0  0
  9 13  1  0  0  0  0
 10  1  1  0  0  0  0
  1  2  2  0  0  0  0
  1  3  1  0  0  0  0
  3  4  1  0  0  0  0
  5  6  1  0  0  0  0
  9 17  1  0  0  0  0
 13 14  1  0  0  0  0
 14 15  1  0  0  0  0
 15 16  1  0  0  0  0
 16 17  1  0  0  0  0
  6  7  2  0  0  0  0
 12 18  1  0  0  0  0
  6  8  1  0  0  0  0
 12 19  1  0  0  0  0
M  END
> <Value>
4.0

> <Relation>
<

> <SourceURI>
mol:CHEMBL2036156

$$$$

Generated by Molecular Materials Informatics

 22 21  0  0  0  0  0  0  0  0999 V2000
   -3.8970   -1.5000    0.0000 C   0  0  0  0  0  0  0  0  0  0  0  0
   -2.5979   -0.7500    0.0000 C   0  0  0  0  0  0  0  0  0  0  0  0
   -2.5979    0.7500    0.0000 C   0  0  0  0  0  0  0  0  0  0  0  0
   -3.8970    1.5000    0.0000 C   0  0  0  0  0  0  0  0  0  0  0  0
   -3.8970    2.9999    0.0000 C   0  0  0  0  0  0  0  0  0  0  0  0
   -3.8970   -2.9999    0.0000 O   0  0  0  0  0  0  0  0  0  0  0  0
   -5.1960   -0.7500    0.0000 N   0  0  0  0  0  0  0  0  0  0  0  0
   -6.4951   -1.5000    0.0000 O   0  0  0  0  0  0  0  0  0  0  0  0
   -5.1960    0.7500    0.0000 C   0  0  0  0  0  0  0  0  0  0  0  0
   -1.2991   -1.5000    0.0000 N   0  0  0  0  0  0  0  0  0  0  0  0
    0.0000   -0.7500    0.0000 C   0  0  0  0  0  0  0  0  0  0  0  0
    0.0000    0.7500    0.0000 O   0  0  0  0  0  0  0  0  0  0  0  0
    1.2991   -1.5000    0.0000 N   0  0  0  0  0  0  0  0  0  0  0  0
    2.5979   -0.7500    0.0000 C   0  0  0  0  0  0  0  0  0  0  0  0
    2.5979    0.7500    0.0000 C   0  0  0  0  0  0  0  0  0  0  0  0
    3.8970    1.5000    0.0000 C   0  0  0  0  0  0  0  0  0  0  0  0
    5.1960    0.7500    0.0000 C   0  0  0  0  0  0  0  0  0  0  0  0
    3.8970    2.9999    0.0000 C   0  0  0  0  0  0  0  0  0  0  0  0
    3.8970   -1.5000    0.0000 C   0  0  0  0  0  0  0  0  0  0  0  0
    5.1960   -0.7500    0.0000 N   0  0  0  0  0  0  0  0  0  0  0  0
    3.8970   -2.9999    0.0000 O   0  0  0  0  0  0  0  0  0  0  0  0
    6.4951   -1.5000    0.0000 O   0  0  0  0  0  0  0  0  0  0  0  0
  1  2  1  0  0  0  0
  2  3  1  0  0  0  0
  3  4  1  0  0  0  0
  4  5  1  0  0  0  0
  1  6  2  0  0  0  0
  7  8  1  0  0  0  0
  1  7  1  0  0  0  0
  4  9  1  0  0  0  0
 10 11  1  0  0  0  0
 11 12  2  0  0  0  0
 11 13  1  0  0  0  0
 14 15  1  0  0  0  0
 15 16  1  0  0  0  0
 16 17  1  0  0  0  0
 16 18  1  0  0  0  0
 19 20  1  0  0  0  0
 19 21  2  0  0  0  0
 20 22  1  0  0  0  0
 14 19  1  0  0  0  0
 14 13  1  1  0  0  0
  2 10  1  6  0  0  0
M  END
> <Value>
4.0

> <Relation>
<

> <SourceURI>
mol:CHEMBL2036133

$$$$

Generated by Molecular Materials Informatics

 28 29  0  0  0  0  0  0  0  0999 V2000
    3.8967   -1.9245    0.0000 C   0  0  0  0  0  0  0  0  0  0  0  0
    2.5976   -1.1745    0.0000 C   0  0  0  0  0  0  0  0  0  0  0  0
    2.5976    0.3255    0.0000 C   0  0  0  0  0  0  0  0  0  0  0  0
    3.8967   -3.4245    0.0000 O   0  0  0  0  0  0  0  0  0  0  0  0
    5.1956   -1.1745    0.0000 N   0  0  0  0  0  0  0  0  0  0  0  0
    3.8967    1.0755    0.0000 C   0  0  0  0  0  0  0  0  0  0  0  0
    5.1956    0.3255    0.0000 C   0  0  0  0  0  0  0  0  0  0  0  0
    6.4947    1.0755    0.0000 C   0  0  0  0  0  0  0  0  0  0  0  0
    6.4947    2.5755    0.0000 C   0  0  0  0  0  0  0  0  0  0  0  0
    5.1956    3.3255    0.0000 C   0  0  0  0  0  0  0  0  0  0  0  0
    3.8967    2.5755    0.0000 C   0  0  0  0  0  0  0  0  0  0  0  0
    1.2985   -1.9245    0.0000 N   0  0  0  0  0  0  0  0  0  0  0  0
   -0.0004   -1.1745    0.0000 C   0  0  0  0  0  0  0  0  0  0  0  0
   -0.0004    0.3255    0.0000 O   0  0  0  0  0  0  0  0  0  0  0  0
   -1.2995   -1.9245    0.0000 N   0  0  0  0  0  0  0  0  0  0  0  0
   -2.5787   -1.1413    0.0000 C   0  0  0  0  0  0  0  0  0  0  0  0
   -2.5398    0.3584    0.0000 C   0  0  0  0  0  0  0  0  0  0  0  0
   -3.8189    1.1416    0.0000 C   0  0  0  0  0  0  0  0  0  0  0  0
   -3.7802    2.6413    0.0000 C   0  0  0  0  0  0  0  0  0  0  0  0
   -5.0593    3.4245    0.0000 C   0  0  0  0  0  0  0  0  0  0  0  0
   -6.3773    2.7085    0.0000 C   0  0  0  0  0  0  0  0  0  0  0  0
   -6.4162    1.2089    0.0000 C   0  0  0  0  0  0  0  0  0  0  0  0
   -5.1371    0.4256    0.0000 C   0  0  0  0  0  0  0  0  0  0  0  0
   -3.8967   -1.8573    0.0000 C   0  0  0  0  0  0  0  0  0  0  0  0
   -5.1956   -1.1073    0.0000 N   0  0  0  0  0  0  0  0  0  0  0  0
   -3.8967   -3.3573    0.0000 O   0  0  0  0  0  0  0  0  0  0  0  0
   -6.4947   -1.8573    0.0000 O   0  0  0  0  0  0  0  0  0  0  0  0
    6.4947   -1.9245    0.0000 O   0  0  0  0  0  0  0  0  0  0  0  0
  1  2  1  0  0  0  0
  2  3  1  0  0  0  0
  1  4  2  0  0  0  0
  1  5  1  0  0  0  0
  6  7  1  0  0  0  0
  7  8  2  0  0  0  0
  8  9  1  0  0  0  0
  9 10  2  0  0  0  0
 10 11  1  0  0  0  0
  6 11  2  0  0  0  0
  3  6  1  0  0  0  0
 12 13  1  0  0  0  0
 13 14  2  0  0  0  0
 13 15  1  0  0  0  0
 16 17  1  0  0  0  0
 18 19  1  0  0  0  0
 19 20  2  0  0  0  0
 20 21  1  0  0  0  0
 21 22  2  0  0  0  0
 22 23  1  0  0  0  0
 18 23  2  0  0  0  0
 17 18  1  0  0  0  0
 24 25  1  0  0  0  0
 24 26  2  0  0  0  0
 25 27  1  0  0  0  0
 16 24  1  0  0  0  0
 16 15  1  6  0  0  0
  2 12  1  1  0  0  0
  5 28  1  0  0  0  0
M  END
> <Value>
4.0

> <Relation>
<

> <SourceURI>
mol:CHEMBL2036134

$$$$

Generated by Molecular Materials Informatics

 21 21  0  0  0  0  0  0  0  0999 V2000
   -0.6500   -0.7502    0.0000 C   0  0  0  0  0  0  0  0  0  0  0  0
   -1.9491   -1.5002    0.0000 N   0  0  0  0  0  0  0  0  0  0  0  0
   -0.6500    0.7498    0.0000 O   0  0  0  0  0  0  0  0  0  0  0  0
    0.6491   -1.5002    0.0000 O   0  0  0  0  0  0  0  0  0  0  0  0
   -3.2480   -0.7502    0.0000 C   0  0  0  0  0  0  0  0  0  0  0  0
   -3.2480    0.7498    0.0000 C   0  0  0  0  0  0  0  0  0  0  0  0
   -4.5471    1.4998    0.0000 C   0  0  0  0  0  0  0  0  0  0  0  0
   -5.8462    0.7498    0.0000 C   0  0  0  0  0  0  0  0  0  0  0  0
   -4.5471    2.9998    0.0000 C   0  0  0  0  0  0  0  0  0  0  0  0
   -4.5471   -1.5002    0.0000 C   0  0  0  0  0  0  0  0  0  0  0  0
   -5.8255   -0.7156    0.0000 N   0  0  0  0  0  0  0  0  0  0  0  0
   -4.5875   -2.9998    0.0000 O   0  0  0  0  0  0  0  0  0  0  0  0
   -7.1442   -1.4304    0.0000 O   0  0  0  0  0  0  0  0  0  0  0  0
    1.9480   -0.7502    0.0000 C   0  0  0  0  0  0  0  0  0  0  0  0
    3.2471   -1.5002    0.0000 C   0  0  0  0  0  0  0  0  0  0  0  0
    4.5462   -0.7502    0.0000 C   0  0  0  0  0  0  0  0  0  0  0  0
    4.5462    0.7498    0.0000 C   0  0  0  0  0  0  0  0  0  0  0  0
    5.8453    1.4998    0.0000 C   0  0  0  0  0  0  0  0  0  0  0  0
    7.1442    0.7498    0.0000 C   0  0  0  0  0  0  0  0  0  0  0  0
    7.1442   -0.7502    0.0000 C   0  0  0  0  0  0  0  0  0  0  0  0
    5.8453   -1.5002    0.0000 C   0  0  0  0  0  0  0  0  0  0  0  0
  1  2  1  0  0  0  0
  1  3  2  0  0  0  0
  1  4  1  0  0  0  0
  5  6  1  0  0  0  0
  6  7  1  0  0  0  0
  7  8  1  0  0  0  0
  7  9  1  0  0  0  0
 10 11  1  0  0  0  0
 10 12  2  0  0  0  0
 11 13  1  0  0  0  0
  5 10  1  0  0  0  0
  5  2  1  6  0  0  0
 14 15  1  0  0  0  0
 15 16  1  0  0  0  0
 16 17  1  0  0  0  0
 17 18  2  0  0  0  0
 18 19  1  0  0  0  0
 19 20  2  0  0  0  0
 20 21  1  0  0  0  0
 16 21  2  0  0  0  0
  4 14  1  0  0  0  0
M  END
> <Value>
4.7447274948966935

> <Relation>
=

> <SourceURI>
mol:CHEMBL2036142

$$$$
