
SketchEl molfile

 17 18  0  0  0  0  0  0  0  0999 V2000
    5.7158   -6.2518    0.0000 C   0  0  0  0  0  0  0  0  0  0  0  0
    5.7146   -7.0789    0.0000 C   0  0  0  0  0  0  0  0  0  0  0  0
    6.4292   -7.4917    0.0000 C   0  0  0  0  0  0  0  0  0  0  0  0
    7.1455   -7.0785    0.0000 C   0  0  0  0  0  0  0  0  0  0  0  0
    7.1426   -6.2482    0.0000 C   0  0  0  0  0  0  0  0  0  0  0  0
    6.4274   -5.8391    0.0000 C   0  0  0  0  0  0  0  0  0  0  0  0
    7.8553   -5.8331    0.0000 O   0  0  0  0  0  0  0  0  0  0  0  0
    8.5712   -6.2428    0.0000 C   0  0  0  0  0  0  0  0  0  0  0  0
    8.5709   -7.0652    0.0000 C   0  0  0  0  0  0  0  0  0  0  0  0
    9.2859   -7.4748    0.0000 C   0  0  0  0  0  0  0  0  0  0  0  0
    9.9996   -7.0597    0.0000 C   0  0  0  0  0  0  0  0  0  0  0  0
    9.9938   -6.2307    0.0000 C   0  0  0  0  0  0  0  0  0  0  0  0
    9.2783   -5.8248    0.0000 C   0  0  0  0  0  0  0  0  0  0  0  0
    6.4250   -5.0144    0.0000 Cl  0  0  0  0  0  0  0  0  0  0  0  0
    5.0000   -7.4908    0.0000 Cl  0  0  0  0  0  0  0  0  0  0  0  0
    9.2709   -5.0000    0.0000 O   0  0  0  0  0  0  0  0  0  0  0  0
   10.7160   -7.4684    0.0000 Cl  0  0  0  0  0  0  0  0  0  0  0  0
  1  2  2  0  0  0  0
  2  3  1  0  0  0  0
  3  4  2  0  0  0  0
  4  5  1  0  0  0  0
  5  6  2  0  0  0  0
  6  1  1  0  0  0  0
  5  7  1  0  0  0  0
  7  8  1  0  0  0  0
  8  9  2  0  0  0  0
  9 10  1  0  0  0  0
 10 11  2  0  0  0  0
 11 12  1  0  0  0  0
 12 13  2  0  0  0  0
 13  8  1  0  0  0  0
  6 14  1  0  0  0  0
  2 15  1  0  0  0  0
 13 16  1  0  0  0  0
 11 17  1  0  0  0  0
M  END
> <Molecule Name>
DNDI1246774

> <CDD Number>
CDD-2304

> <IC50_uM>
52.96 (n=1)

$$$$

SketchEl molfile

 23 24  0  0  0  0  0  0  0  0999 V2000
    5.0012   -7.9089    0.0000 C   0  0  0  0  0  0  0  0  0  0  0  0
    5.0000   -8.7357    0.0000 C   0  0  0  0  0  0  0  0  0  0  0  0
    5.7143   -9.1483    0.0000 C   0  0  0  0  0  0  0  0  0  0  0  0
    6.4303   -8.7352    0.0000 C   0  0  0  0  0  0  0  0  0  0  0  0
    6.4275   -7.9052    0.0000 C   0  0  0  0  0  0  0  0  0  0  0  0
    5.7125   -7.4964    0.0000 C   0  0  0  0  0  0  0  0  0  0  0  0
    7.1399   -7.4903    0.0000 S   0  0  0  0  0  0  0  0  0  0  0  0
    7.8555   -7.8999    0.0000 N   0  0  0  0  0  0  0  0  0  0  0  0
    8.5679   -7.4849    0.0000 C   0  0  0  0  0  0  0  0  0  0  0  0
    9.2835   -7.8945    0.0000 N   0  0  0  0  0  0  0  0  0  0  0  0
    8.5648   -6.6605    0.0000 O   0  0  0  0  0  0  0  0  0  0  0  0
    9.9959   -7.4795    0.0000 C   0  0  0  0  0  0  0  0  0  0  0  0
   10.7075   -7.8908    0.0000 N   0  0  0  0  0  0  0  0  0  0  0  0
   11.4194   -7.4766    0.0000 C   0  0  0  0  0  0  0  0  0  0  0  0
   11.4168   -6.6513    0.0000 N   0  0  0  0  0  0  0  0  0  0  0  0
   10.6962   -6.2419    0.0000 C   0  0  0  0  0  0  0  0  0  0  0  0
    9.9872   -6.6585    0.0000 N   0  0  0  0  0  0  0  0  0  0  0  0
    6.5516   -6.9012    0.0000 O   0  0  0  0  0  0  0  0  0  0  0  0
    7.5468   -6.7721    0.0000 O   0  0  0  0  0  0  0  0  0  0  0  0
   10.6902   -5.4175    0.0000 O   0  0  0  0  0  0  0  0  0  0  0  0
   11.4012   -5.0000    0.0000 C   0  0  0  0  0  0  0  0  0  0  0  0
   12.1348   -7.8865    0.0000 C   0  0  0  0  0  0  0  0  0  0  0  0
    7.1450   -9.1463    0.0000 Cl  0  0  0  0  0  0  0  0  0  0  0  0
  1  2  2  0  0  0  0
  2  3  1  0  0  0  0
  3  4  2  0  0  0  0
  4  5  1  0  0  0  0
  5  6  2  0  0  0  0
  6  1  1  0  0  0  0
  5  7  1  0  0  0  0
  7  8  1  0  0  0  0
  8  9  1  0  0  0  0
  9 10  1  0  0  0  0
  9 11  2  0  0  0  0
 10 12  1  0  0  0  0
 12 13  2  0  0  0  0
 13 14  1  0  0  0  0
 14 15  2  0  0  0  0
 15 16  1  0  0  0  0
 16 17  2  0  0  0  0
 17 12  1  0  0  0  0
  7 18  2  0  0  0  0
  7 19  2  0  0  0  0
 16 20  1  0  0  0  0
 20 21  1  0  0  0  0
 14 22  1  0  0  0  0
  4 23  1  0  0  0  0
M  END
> <Molecule Name>
DNDI1246776

> <CDD Number>
CDD-54584

> <IC50_uM>
44.97 (n=1)

$$$$

SketchEl molfile

 20 21  0  0  0  0  0  0  0  0999 V2000
    5.7161   -5.8255    0.0000 C   0  0  0  0  0  0  0  0  0  0  0  0
    5.7161   -6.6509    0.0000 C   0  0  0  0  0  0  0  0  0  0  0  0
    6.4285   -7.0595    0.0000 C   0  0  0  0  0  0  0  0  0  0  0  0
    7.1409   -6.6509    0.0000 C   0  0  0  0  0  0  0  0  0  0  0  0
    7.1409   -5.8255    0.0000 C   0  0  0  0  0  0  0  0  0  0  0  0
    6.4285   -5.4086    0.0000 C   0  0  0  0  0  0  0  0  0  0  0  0
    7.8552   -7.0647    0.0000 C   0  0  0  0  0  0  0  0  0  0  0  0
    7.8540   -7.8901    0.0000 O   0  0  0  0  0  0  0  0  0  0  0  0
    8.5707   -6.6530    0.0000 C   0  0  0  0  0  0  0  0  0  0  0  0
    9.2834   -7.0676    0.0000 C   0  0  0  0  0  0  0  0  0  0  0  0
    9.9983   -6.6566    0.0000 C   0  0  0  0  0  0  0  0  0  0  0  0
   10.0000   -5.8303    0.0000 C   0  0  0  0  0  0  0  0  0  0  0  0
    9.2807   -5.4167    0.0000 C   0  0  0  0  0  0  0  0  0  0  0  0
    8.5686   -5.8301    0.0000 C   0  0  0  0  0  0  0  0  0  0  0  0
   10.7149   -5.4176    0.0000 Cl  0  0  0  0  0  0  0  0  0  0  0  0
    9.2812   -7.8931    0.0000 Cl  0  0  0  0  0  0  0  0  0  0  0  0
    7.8570   -5.4148    0.0000 O   0  0  0  0  0  0  0  0  0  0  0  0
    6.4285   -7.8849    0.0000 O   0  0  0  0  0  0  0  0  0  0  0  0
    5.0000   -5.4148    0.0000 C   0  0  0  0  0  0  0  0  0  0  0  0
    5.7119   -5.0000    0.0000 C   0  0  0  0  0  0  0  0  0  0  0  0
  1  2  1  0  0  0  0
  1  6  1  0  0  0  0
  2  3  1  0  0  0  0
  3  4  1  0  0  0  0
  4  5  1  0  0  0  0
  5  6  1  0  0  0  0
  4  7  1  0  0  0  0
  7  8  2  0  0  0  0
  7  9  1  0  0  0  0
  9 10  2  0  0  0  0
 10 11  1  0  0  0  0
 11 12  2  0  0  0  0
 12 13  1  0  0  0  0
 13 14  2  0  0  0  0
 14  9  1  0  0  0  0
 12 15  1  0  0  0  0
 10 16  1  0  0  0  0
  5 17  2  0  0  0  0
  3 18  2  0  0  0  0
  1 19  1  0  0  0  0
  1 20  1  0  0  0  0
M  END
> <Molecule Name>
DNDI1246777

> <CDD Number>
CDD-1535144

> <IC50_uM>
58.51 (n=1)

$$$$

SketchEl molfile

 22 24  0  0  0  0  0  0  0  0999 V2000
    5.7160   -7.8893    0.0000 C   0  0  0  0  0  0  0  0  0  0  0  0
    5.7149   -8.7168    0.0000 C   0  0  0  0  0  0  0  0  0  0  0  0
    6.4298   -9.1297    0.0000 C   0  0  0  0  0  0  0  0  0  0  0  0
    7.1463   -8.7163    0.0000 C   0  0  0  0  0  0  0  0  0  0  0  0
    7.1434   -7.8857    0.0000 C   0  0  0  0  0  0  0  0  0  0  0  0
    6.4280   -7.4765    0.0000 C   0  0  0  0  0  0  0  0  0  0  0  0
    7.8564   -7.4705    0.0000 C   0  0  0  0  0  0  0  0  0  0  0  0
    8.5725   -7.8803    0.0000 C   0  0  0  0  0  0  0  0  0  0  0  0
    7.8533   -6.6454    0.0000 C   0  0  0  0  0  0  0  0  0  0  0  0
    8.5681   -6.2350    0.0000 C   0  0  0  0  0  0  0  0  0  0  0  0
    8.5653   -5.4107    0.0000 C   0  0  0  0  0  0  0  0  0  0  0  0
    7.8487   -5.0000    0.0000 C   0  0  0  0  0  0  0  0  0  0  0  0
    7.1333   -5.4197    0.0000 C   0  0  0  0  0  0  0  0  0  0  0  0
    7.1396   -6.2426    0.0000 C   0  0  0  0  0  0  0  0  0  0  0  0
    8.5722   -8.7030    0.0000 C   0  0  0  0  0  0  0  0  0  0  0  0
    9.2875   -9.1128    0.0000 N   0  0  0  0  0  0  0  0  0  0  0  0
   10.0015   -8.6975    0.0000 C   0  0  0  0  0  0  0  0  0  0  0  0
    9.9957   -7.8682    0.0000 N   0  0  0  0  0  0  0  0  0  0  0  0
    9.2799   -7.4621    0.0000 C   0  0  0  0  0  0  0  0  0  0  0  0
    7.8510   -8.2936    0.0000 O   0  0  0  0  0  0  0  0  0  0  0  0
    9.2828   -6.6472    0.0000 Cl  0  0  0  0  0  0  0  0  0  0  0  0
    5.0000   -9.1288    0.0000 Cl  0  0  0  0  0  0  0  0  0  0  0  0
  1  2  2  0  0  0  0
  2  3  1  0  0  0  0
  3  4  2  0  0  0  0
  4  5  1  0  0  0  0
  5  6  2  0  0  0  0
  6  1  1  0  0  0  0
  5  7  1  0  0  0  0
  7  8  1  0  0  0  0
  7  9  1  0  0  0  0
  9 10  2  0  0  0  0
 10 11  1  0  0  0  0
 11 12  2  0  0  0  0
 12 13  1  0  0  0  0
 13 14  2  0  0  0  0
 14  9  1  0  0  0  0
  8 15  2  0  0  0  0
 15 16  1  0  0  0  0
 16 17  2  0  0  0  0
 17 18  1  0  0  0  0
 18 19  2  0  0  0  0
 19  8  1  0  0  0  0
  7 20  1  0  0  0  0
 10 21  1  0  0  0  0
  2 22  1  0  0  0  0
M  END
> <Molecule Name>
DNDI1246778

> <CDD Number>
CDD-54634

> <IC50_uM>
0.295803989154981 ร/รท 1.26860998389364 (n=2)

$$$$

SketchEl molfile

 21 23  0  0  0  0  0  0  0  0999 V2000
    7.6042   -7.0996    0.0000 C   0  0  0  0  0  0  0  0  0  0  0  0
    8.4294   -7.0996    0.0000 C   0  0  0  0  0  0  0  0  0  0  0  0
    8.6863   -6.3153    0.0000 C   0  0  0  0  0  0  0  0  0  0  0  0
    8.0168   -5.8284    0.0000 O   0  0  0  0  0  0  0  0  0  0  0  0
    7.3516   -6.3153    0.0000 C   0  0  0  0  0  0  0  0  0  0  0  0
    6.5667   -6.0606    0.0000 C   0  0  0  0  0  0  0  0  0  0  0  0
    6.3981   -5.2547    0.0000 C   0  0  0  0  0  0  0  0  0  0  0  0
    5.6140   -5.0000    0.0000 C   0  0  0  0  0  0  0  0  0  0  0  0
    5.0000   -5.5527    0.0000 C   0  0  0  0  0  0  0  0  0  0  0  0
    5.1754   -6.3634    0.0000 C   0  0  0  0  0  0  0  0  0  0  0  0
    5.9593   -6.6144    0.0000 C   0  0  0  0  0  0  0  0  0  0  0  0
    7.1183   -7.7666    0.0000 O   0  0  0  0  0  0  0  0  0  0  0  0
    8.9137   -7.7678    0.0000 C   0  0  0  0  0  0  0  0  0  0  0  0
    9.4715   -6.0614    0.0000 N   0  0  0  0  0  0  0  0  0  0  0  0
   10.0840   -6.6144    0.0000 C   0  0  0  0  0  0  0  0  0  0  0  0
    8.5741   -8.5195    0.0000 C   0  0  0  0  0  0  0  0  0  0  0  0
    9.0576   -9.1873    0.0000 C   0  0  0  0  0  0  0  0  0  0  0  0
    9.8793   -9.1024    0.0000 C   0  0  0  0  0  0  0  0  0  0  0  0
   10.2151   -8.3439    0.0000 C   0  0  0  0  0  0  0  0  0  0  0  0
    9.7296   -7.6793    0.0000 C   0  0  0  0  0  0  0  0  0  0  0  0
   11.0356   -8.2557    0.0000 Cf3 0  0  0  0  0  0  0  0  0  0  0  0
  1  2  1  0  0  0  0
  2  3  2  0  0  0  0
  3  4  1  0  0  0  0
  4  5  1  0  0  0  0
  5  1  1  0  0  0  0
  5  6  1  0  0  0  0
  6  7  2  0  0  0  0
  7  8  1  0  0  0  0
  8  9  2  0  0  0  0
  9 10  1  0  0  0  0
 10 11  2  0  0  0  0
 11  6  1  0  0  0  0
  1 12  2  0  0  0  0
  2 13  1  0  0  0  0
  3 14  1  0  0  0  0
 14 15  1  0  0  0  0
 13 16  2  0  0  0  0
 16 17  1  0  0  0  0
 17 18  2  0  0  0  0
 18 19  1  0  0  0  0
 19 20  2  0  0  0  0
 20 13  1  0  0  0  0
 19 21  1  0  0  0  0
A   21
Cf3
M  END
> <Molecule Name>
DNDI1246784

> <CDD Number>
CDD-1535149

> <IC50_uM>
55.5 (n=1)

$$$$

SketchEl molfile

 24 25  0  0  0  0  0  0  0  0999 V2000
    6.7042   -6.4868    0.0000 C   0  0  0  0  0  0  0  0  0  0  0  0
    6.7030   -7.3138    0.0000 C   0  0  0  0  0  0  0  0  0  0  0  0
    7.4175   -7.7264    0.0000 C   0  0  0  0  0  0  0  0  0  0  0  0
    8.1336   -7.3133    0.0000 C   0  0  0  0  0  0  0  0  0  0  0  0
    8.1307   -6.4831    0.0000 C   0  0  0  0  0  0  0  0  0  0  0  0
    7.4157   -6.0742    0.0000 C   0  0  0  0  0  0  0  0  0  0  0  0
    8.8484   -7.7245    0.0000 O   0  0  0  0  0  0  0  0  0  0  0  0
    9.5619   -7.3110    0.0000 N   0  0  0  0  0  0  0  0  0  0  0  0
   10.2767   -7.7222    0.0000 C   0  0  0  0  0  0  0  0  0  0  0  0
   10.9902   -7.3088    0.0000 C   0  0  0  0  0  0  0  0  0  0  0  0
   11.7037   -7.7213    0.0000 C   0  0  0  0  0  0  0  0  0  0  0  0
   12.4167   -7.3086    0.0000 C   0  0  0  0  0  0  0  0  0  0  0  0
   12.4158   -6.4831    0.0000 C   0  0  0  0  0  0  0  0  0  0  0  0
   11.6960   -6.0721    0.0000 C   0  0  0  0  0  0  0  0  0  0  0  0
   10.9859   -6.4872    0.0000 C   0  0  0  0  0  0  0  0  0  0  0  0
   11.6918   -5.2475    0.0000 Br  0  0  0  0  0  0  0  0  0  0  0  0
   13.1288   -6.0687    0.0000 O   0  0  0  0  0  0  0  0  0  0  0  0
   13.1313   -7.7201    0.0000 Br  0  0  0  0  0  0  0  0  0  0  0  0
    5.9899   -6.0746    0.0000 N   0  3  0  0  0  0  0  0  0  0  0  0
    5.9892   -5.2506    0.0000 O   0  5  0  0  0  0  0  0  0  0  0  0
    5.2754   -6.4877    0.0000 O   0  0  0  0  0  0  0  0  0  0  0  0
    7.4173   -8.5511    0.0000 N   0  3  0  0  0  0  0  0  0  0  0  0
    6.7071   -8.9662    0.0000 O   0  5  0  0  0  0  0  0  0  0  0  0
    8.1354   -8.9665    0.0000 O   0  0  0  0  0  0  0  0  0  0  0  0
  1 19  1  0  0  0  0
 19 20  1  0  0  0  0
 19 21  2  0  0  0  0
  3 22  1  0  0  0  0
 22 23  1  0  0  0  0
 22 24  2  0  0  0  0
  1  2  2  0  0  0  0
  2  3  1  0  0  0  0
  3  4  2  0  0  0  0
  4  5  1  0  0  0  0
  5  6  2  0  0  0  0
  6  1  1  0  0  0  0
  4  7  1  0  0  0  0
  7  8  1  0  0  0  0
  8  9  2  0  0  0  0
  9 10  1  0  0  0  0
 10 11  2  0  0  0  0
 11 12  1  0  0  0  0
 12 13  2  0  0  0  0
 13 14  1  0  0  0  0
 14 15  2  0  0  0  0
 15 10  1  0  0  0  0
 14 16  1  0  0  0  0
 13 17  1  0  0  0  0
 12 18  1  0  0  0  0
M  CHG  4  19   1  20  -1  22   1  23  -1
M  END
> <Molecule Name>
DNDI1246786

> <CDD Number>
CDD-1535150

> <IC50_uM>
23.86 (n=1)

$$$$

SketchEl molfile

 24 25  0  0  0  0  0  0  0  0999 V2000
    5.7144   -6.2458    0.0000 C   0  0  0  0  0  0  0  0  0  0  0  0
    5.7132   -7.0729    0.0000 C   0  0  0  0  0  0  0  0  0  0  0  0
    6.4279   -7.4857    0.0000 N   0  0  0  0  0  0  0  0  0  0  0  0
    7.1441   -7.0724    0.0000 C   0  0  0  0  0  0  0  0  0  0  0  0
    7.1413   -6.2421    0.0000 C   0  0  0  0  0  0  0  0  0  0  0  0
    6.4261   -5.8331    0.0000 C   0  0  0  0  0  0  0  0  0  0  0  0
    7.8591   -7.4837    0.0000 O   0  0  0  0  0  0  0  0  0  0  0  0
    8.5727   -7.0702    0.0000 C   0  0  0  0  0  0  0  0  0  0  0  0
    9.2843   -7.4819    0.0000 C   0  0  0  0  0  0  0  0  0  0  0  0
    9.9975   -7.0691    0.0000 C   0  0  0  0  0  0  0  0  0  0  0  0
    9.9966   -6.2434    0.0000 C   0  0  0  0  0  0  0  0  0  0  0  0
    9.2767   -5.8323    0.0000 C   0  0  0  0  0  0  0  0  0  0  0  0
    8.5665   -6.2475    0.0000 C   0  0  0  0  0  0  0  0  0  0  0  0
   10.7097   -5.8289    0.0000 O   0  0  0  0  0  0  0  0  0  0  0  0
   11.4252   -6.2393    0.0000 C   0  0  0  0  0  0  0  0  0  0  0  0
   12.1383   -5.8248    0.0000 C   0  0  0  0  0  0  0  0  0  0  0  0
   11.4276   -7.0641    0.0000 C   0  0  0  0  0  0  0  0  0  0  0  0
   12.8538   -6.2351    0.0000 O   0  0  0  0  0  0  0  0  0  0  0  0
   12.1359   -5.0000    0.0000 O   0  0  0  0  0  0  0  0  0  0  0  0
   13.5669   -5.8207    0.0000 C   0  0  0  0  0  0  0  0  0  0  0  0
   14.2824   -6.2310    0.0000 C   0  0  0  0  0  0  0  0  0  0  0  0
   14.9979   -6.6413    0.0000 C   0  0  0  0  0  0  0  0  0  0  0  0
    7.8540   -5.8270    0.0000 F   0  0  0  0  0  0  0  0  0  0  0  0
    5.0000   -5.8335    0.0000 Cl  0  0  0  0  0  0  0  0  0  0  0  0
  1  2  2  0  0  0  0
  2  3  1  0  0  0  0
  3  4  2  0  0  0  0
  4  5  1  0  0  0  0
  5  6  2  0  0  0  0
  6  1  1  0  0  0  0
  4  7  1  0  0  0  0
  7  8  1  0  0  0  0
  8  9  2  0  0  0  0
  9 10  1  0  0  0  0
 10 11  2  0  0  0  0
 11 12  1  0  0  0  0
 12 13  2  0  0  0  0
 13  8  1  0  0  0  0
 11 14  1  0  0  0  0
 14 15  1  1  0  0  0
 15 16  1  0  0  0  0
 15 17  1  0  0  0  0
 16 18  1  0  0  0  0
 16 19  2  0  0  0  0
 18 20  1  0  0  0  0
 20 21  1  0  0  0  0
 21 22  3  0  0  0  0
  5 23  1  0  0  0  0
  1 24  1  0  0  0  0
M  END
> <Molecule Name>
DNDI1246788

> <CDD Number>
CDD-1535151

> <IC50_uM>
67.5 (n=1)

$$$$

SketchEl molfile

 14 14  0  0  0  0  0  0  0  0999 V2000
    5.7141   -5.4125    0.0000 C   0  0  0  0  0  0  0  0  0  0  0  0
    5.7130   -6.2393    0.0000 C   0  0  0  0  0  0  0  0  0  0  0  0
    6.4273   -6.6519    0.0000 C   0  0  0  0  0  0  0  0  0  0  0  0
    7.1433   -6.2389    0.0000 C   0  0  0  0  0  0  0  0  0  0  0  0
    7.1404   -5.4089    0.0000 C   0  0  0  0  0  0  0  0  0  0  0  0
    6.4255   -5.0000    0.0000 C   0  0  0  0  0  0  0  0  0  0  0  0
    5.0000   -5.0005    0.0000 Br  0  0  0  0  0  0  0  0  0  0  0  0
    7.8579   -6.6500    0.0000 N   0  0  0  0  0  0  0  0  0  0  0  0
    8.5713   -6.2366    0.0000 C   0  0  0  0  0  0  0  0  0  0  0  0
    9.2860   -6.6477    0.0000 N   0  0  0  0  0  0  0  0  0  0  0  0
    8.5700   -5.4122    0.0000 O   0  0  0  0  0  0  0  0  0  0  0  0
    9.2873   -7.4722    0.0000 C   0  0  0  0  0  0  0  0  0  0  0  0
    9.9994   -6.2344    0.0000 O   0  0  0  0  0  0  0  0  0  0  0  0
   10.7141   -6.6455    0.0000 C   0  0  0  0  0  0  0  0  0  0  0  0
  1  2  2  0  0  0  0
  2  3  1  0  0  0  0
  3  4  2  0  0  0  0
  4  5  1  0  0  0  0
  5  6  2  0  0  0  0
  6  1  1  0  0  0  0
  1  7  1  0  0  0  0
  4  8  1  0  0  0  0
  8  9  1  0  0  0  0
  9 10  1  0  0  0  0
  9 11  2  0  0  0  0
 10 12  1  0  0  0  0
 10 13  1  0  0  0  0
 13 14  1  0  0  0  0
M  END
> <Molecule Name>
DNDI1246791

> <CDD Number>
CDD-1535143

> <IC50_uM>
71.77 (n=1)

$$$$

SketchEl molfile

 23 25  0  0  0  0  0  0  0  0999 V2000
    5.7150   -5.4122    0.0000 C   0  0  0  0  0  0  0  0  0  0  0  0
    5.7138   -6.2385    0.0000 C   0  0  0  0  0  0  0  0  0  0  0  0
    6.4277   -6.6508    0.0000 C   0  0  0  0  0  0  0  0  0  0  0  0
    6.4259   -5.0000    0.0000 C   0  0  0  0  0  0  0  0  0  0  0  0
    7.1403   -5.4086    0.0000 C   0  0  0  0  0  0  0  0  0  0  0  0
    7.1406   -6.2385    0.0000 C   0  0  0  0  0  0  0  0  0  0  0  0
    7.9300   -6.4948    0.0000 O   0  0  0  0  0  0  0  0  0  0  0  0
    8.4177   -5.8232    0.0000 C   0  0  0  0  0  0  0  0  0  0  0  0
    7.9296   -5.1519    0.0000 N   0  0  0  0  0  0  0  0  0  0  0  0
    5.0000   -6.6499    0.0000 Cl  0  0  0  0  0  0  0  0  0  0  0  0
    9.2416   -5.8229    0.0000 O   0  0  0  0  0  0  0  0  0  0  0  0
    9.6538   -6.5363    0.0000 C   0  0  0  0  0  0  0  0  0  0  0  0
    9.2386   -7.2486    0.0000 C   0  0  0  0  0  0  0  0  0  0  0  0
    9.6501   -7.9615    0.0000 C   0  0  0  0  0  0  0  0  0  0  0  0
   10.4749   -7.9616    0.0000 C   0  0  0  0  0  0  0  0  0  0  0  0
   10.8864   -7.2429    0.0000 C   0  0  0  0  0  0  0  0  0  0  0  0
   10.4725   -6.5330    0.0000 C   0  0  0  0  0  0  0  0  0  0  0  0
   10.8880   -8.6744    0.0000 O   0  0  0  0  0  0  0  0  0  0  0  0
   11.7119   -8.6731    0.0000 C   0  0  0  0  0  0  0  0  0  0  0  0
   12.1251   -9.3859    0.0000 C   0  0  0  0  0  0  0  0  0  0  0  0
   12.1227   -7.9589    0.0000 C   0  0  0  0  0  0  0  0  0  0  0  0
   12.9466   -7.9575    0.0000 O   0  0  0  0  0  0  0  0  0  0  0  0
   11.7095   -7.2460    0.0000 O   0  0  0  0  0  0  0  0  0  0  0  0
  1  2  2  0  0  0  0
  2  3  1  0  0  0  0
  3  6  2  0  0  0  0
  5  4  2  0  0  0  0
  4  1  1  0  0  0  0
  5  6  1  0  0  0  0
  6  7  1  0  0  0  0
  7  8  1  0  0  0  0
  8  9  2  0  0  0  0
  9  5  1  0  0  0  0
  2 10  1  0  0  0  0
  8 11  1  0  0  0  0
 11 12  1  0  0  0  0
 12 13  2  0  0  0  0
 13 14  1  0  0  0  0
 14 15  2  0  0  0  0
 15 16  1  0  0  0  0
 16 17  2  0  0  0  0
 17 12  1  0  0  0  0
 15 18  1  0  0  0  0
 18 19  1  0  0  0  0
 19 20  1  0  0  0  0
 19 21  1  0  0  0  0
 21 22  1  0  0  0  0
 21 23  2  0  0  0  0
M  END
> <Molecule Name>
DNDI1246799

> <CDD Number>
CDD-2256

> <IC50_uM>
> 100.0 (n=1)

$$$$

SketchEl molfile

 14 14  0  0  0  0  0  0  0  0999 V2000
    5.7141   -5.4137    0.0000 C   0  0  0  0  0  0  0  0  0  0  0  0
    5.7130   -6.2405    0.0000 C   0  0  0  0  0  0  0  0  0  0  0  0
    6.4273   -6.6531    0.0000 C   0  0  0  0  0  0  0  0  0  0  0  0
    7.1433   -6.2401    0.0000 C   0  0  0  0  0  0  0  0  0  0  0  0
    7.1404   -5.4101    0.0000 C   0  0  0  0  0  0  0  0  0  0  0  0
    6.4255   -5.0012    0.0000 C   0  0  0  0  0  0  0  0  0  0  0  0
    7.8579   -6.6512    0.0000 O   0  0  0  0  0  0  0  0  0  0  0  0
    8.5713   -6.2378    0.0000 C   0  0  0  0  0  0  0  0  0  0  0  0
    9.2859   -6.6489    0.0000 C   0  0  0  0  0  0  0  0  0  0  0  0
    8.5700   -5.4133    0.0000 C   0  0  0  0  0  0  0  0  0  0  0  0
    9.2834   -5.0000    0.0000 O   0  0  0  0  0  0  0  0  0  0  0  0
    7.8553   -5.0022    0.0000 O   0  0  0  0  0  0  0  0  0  0  0  0
    6.4271   -7.4776    0.0000 Cl  0  0  0  0  0  0  0  0  0  0  0  0
    5.0000   -5.0016    0.0000 Cl  0  0  0  0  0  0  0  0  0  0  0  0
  1  2  2  0  0  0  0
  2  3  1  0  0  0  0
  3  4  2  0  0  0  0
  4  5  1  0  0  0  0
  5  6  2  0  0  0  0
  6  1  1  0  0  0  0
  4  7  1  0  0  0  0
  7  8  1  0  0  0  0
  8  9  1  0  0  0  0
  8 10  1  0  0  0  0
 10 11  1  0  0  0  0
 10 12  2  0  0  0  0
  3 13  1  0  0  0  0
  1 14  1  0  0  0  0
M  END
> <Molecule Name>
DNDI1249371

> <CDD Number>
CDD-54610

> <IC50_uM>
73.95 (n=1)

$$$$

SketchEl molfile

 21 23  0  0  0  0  0  0  0  0999 V2000
    7.8599   -7.0632    0.0000 C   0  0  0  0  0  0  0  0  0  0  0  0
    7.8587   -7.8894    0.0000 C   0  0  0  0  0  0  0  0  0  0  0  0
    8.5726   -8.3017    0.0000 N   0  0  0  0  0  0  0  0  0  0  0  0
    9.2880   -7.8889    0.0000 C   0  0  0  0  0  0  0  0  0  0  0  0
    9.2851   -7.0596    0.0000 N   0  0  0  0  0  0  0  0  0  0  0  0
    8.5708   -6.6510    0.0000 C   0  0  0  0  0  0  0  0  0  0  0  0
    7.1463   -6.6514    0.0000 C   0  0  0  0  0  0  0  0  0  0  0  0
    6.4300   -6.2394    0.0000 C   0  0  0  0  0  0  0  0  0  0  0  0
    6.7296   -7.3628    0.0000 C   0  0  0  0  0  0  0  0  0  0  0  0
    7.5534   -5.9357    0.0000 O   0  0  0  0  0  0  0  0  0  0  0  0
    6.4315   -5.4119    0.0000 C   0  0  0  0  0  0  0  0  0  0  0  0
    5.7160   -5.0000    0.0000 C   0  0  0  0  0  0  0  0  0  0  0  0
    5.0000   -5.4143    0.0000 C   0  0  0  0  0  0  0  0  0  0  0  0
    5.0040   -6.2450    0.0000 C   0  0  0  0  0  0  0  0  0  0  0  0
    5.7200   -6.6532    0.0000 C   0  0  0  0  0  0  0  0  0  0  0  0
    5.9041   -7.3548    0.0000 C   0  0  0  0  0  0  0  0  0  0  0  0
    5.4874   -8.0653    0.0000 C   0  0  0  0  0  0  0  0  0  0  0  0
    5.8952   -8.7829    0.0000 C   0  0  0  0  0  0  0  0  0  0  0  0
    6.7239   -8.7855    0.0000 C   0  0  0  0  0  0  0  0  0  0  0  0
    7.1368   -8.0744    0.0000 C   0  0  0  0  0  0  0  0  0  0  0  0
    5.4797   -9.4943    0.0000 Cl  0  0  0  0  0  0  0  0  0  0  0  0
  8 11  2  0  0  0  0
  5  6  2  0  0  0  0
 11 12  1  0  0  0  0
  6  1  1  0  0  0  0
 12 13  2  0  0  0  0
  1  2  2  0  0  0  0
 13 14  1  0  0  0  0
  1  7  1  0  0  0  0
 14 15  2  0  0  0  0
 15  8  1  0  0  0  0
  3  4  2  0  0  0  0
  9 16  2  0  0  0  0
  7  8  1  0  0  0  0
 16 17  1  0  0  0  0
 17 18  2  0  0  0  0
  7  9  1  0  0  0  0
 18 19  1  0  0  0  0
  4  5  1  0  0  0  0
 19 20  2  0  0  0  0
 20  9  1  0  0  0  0
  7 10  1  0  0  0  0
  2  3  1  0  0  0  0
 18 21  1  0  0  0  0
M  END
> <Molecule Name>
DNDI1251116

> <CDD Number>
CDD-1535152

> <IC50_uM>
0.46225 (n=1)

$$$$

SketchEl molfile

 22 24  0  0  0  0  0  0  0  0999 V2000
    8.5748   -7.0634    0.0000 C   0  0  0  0  0  0  0  0  0  0  0  0
    8.5736   -7.8896    0.0000 C   0  0  0  0  0  0  0  0  0  0  0  0
    9.2875   -8.3019    0.0000 N   0  0  0  0  0  0  0  0  0  0  0  0
   10.0029   -7.8891    0.0000 C   0  0  0  0  0  0  0  0  0  0  0  0
   10.0001   -7.0597    0.0000 N   0  0  0  0  0  0  0  0  0  0  0  0
    9.2857   -6.6511    0.0000 C   0  0  0  0  0  0  0  0  0  0  0  0
    7.8612   -6.6516    0.0000 C   0  0  0  0  0  0  0  0  0  0  0  0
    7.1448   -6.2395    0.0000 C   0  0  0  0  0  0  0  0  0  0  0  0
    7.4444   -7.3630    0.0000 C   0  0  0  0  0  0  0  0  0  0  0  0
    8.2683   -5.9357    0.0000 O   0  0  0  0  0  0  0  0  0  0  0  0
    7.1463   -5.4120    0.0000 C   0  0  0  0  0  0  0  0  0  0  0  0
    6.4307   -5.0000    0.0000 C   0  0  0  0  0  0  0  0  0  0  0  0
    5.7147   -5.4144    0.0000 C   0  0  0  0  0  0  0  0  0  0  0  0
    5.7187   -6.2451    0.0000 C   0  0  0  0  0  0  0  0  0  0  0  0
    6.4348   -6.6534    0.0000 C   0  0  0  0  0  0  0  0  0  0  0  0
    6.6189   -7.3550    0.0000 C   0  0  0  0  0  0  0  0  0  0  0  0
    6.2022   -8.0655    0.0000 C   0  0  0  0  0  0  0  0  0  0  0  0
    6.6099   -8.7832    0.0000 C   0  0  0  0  0  0  0  0  0  0  0  0
    7.4387   -8.7858    0.0000 C   0  0  0  0  0  0  0  0  0  0  0  0
    7.8517   -8.0746    0.0000 C   0  0  0  0  0  0  0  0  0  0  0  0
    6.1944   -9.4946    0.0000 Cl  0  0  0  0  0  0  0  0  0  0  0  0
    5.0000   -5.0045    0.0000 Cl  0  0  0  0  0  0  0  0  0  0  0  0
  8 11  2  0  0  0  0
  5  6  2  0  0  0  0
 11 12  1  0  0  0  0
  6  1  1  0  0  0  0
 12 13  2  0  0  0  0
  1  2  2  0  0  0  0
 13 14  1  0  0  0  0
  1  7  1  0  0  0  0
 14 15  2  0  0  0  0
 15  8  1  0  0  0  0
  3  4  2  0  0  0  0
  9 16  2  0  0  0  0
  7  8  1  0  0  0  0
 16 17  1  0  0  0  0
 17 18  2  0  0  0  0
  7  9  1  0  0  0  0
 18 19  1  0  0  0  0
  4  5  1  0  0  0  0
 19 20  2  0  0  0  0
 20  9  1  0  0  0  0
  7 10  1  0  0  0  0
  2  3  1  0  0  0  0
 18 21  1  0  0  0  0
 13 22  1  0  0  0  0
M  END
> <Molecule Name>
DNDI1251118

> <CDD Number>
CDD-1535153

> <IC50_uM>
0.223667 (n=1)

$$$$

SketchEl molfile

 22 24  0  0  0  0  0  0  0  0999 V2000
    6.4295   -7.8864    0.0000 C   0  0  0  0  0  0  0  0  0  0  0  0
    7.1447   -7.4736    0.0000 C   0  0  0  0  0  0  0  0  0  0  0  0
    7.8597   -7.8864    0.0000 C   0  0  0  0  0  0  0  0  0  0  0  0
    7.1447   -6.6478    0.0000 C   0  0  0  0  0  0  0  0  0  0  0  0
    7.8630   -6.2386    0.0000 C   0  0  0  0  0  0  0  0  0  0  0  0
    7.8634   -5.4137    0.0000 C   0  0  0  0  0  0  0  0  0  0  0  0
    7.1478   -5.0000    0.0000 C   0  0  0  0  0  0  0  0  0  0  0  0
    6.4303   -5.4173    0.0000 C   0  0  0  0  0  0  0  0  0  0  0  0
    6.4335   -6.2408    0.0000 C   0  0  0  0  0  0  0  0  0  0  0  0
    7.8572   -8.7132    0.0000 C   0  0  0  0  0  0  0  0  0  0  0  0
    8.5714   -9.1259    0.0000 N   0  0  0  0  0  0  0  0  0  0  0  0
    9.2874   -8.7130    0.0000 C   0  0  0  0  0  0  0  0  0  0  0  0
    9.2847   -7.8831    0.0000 N   0  0  0  0  0  0  0  0  0  0  0  0
    8.5700   -7.4741    0.0000 C   0  0  0  0  0  0  0  0  0  0  0  0
    5.7150   -7.4706    0.0000 C   0  0  0  0  0  0  0  0  0  0  0  0
    5.0004   -7.8828    0.0000 C   0  0  0  0  0  0  0  0  0  0  0  0
    5.0000   -8.7093    0.0000 C   0  0  0  0  0  0  0  0  0  0  0  0
    5.7200   -9.1220    0.0000 C   0  0  0  0  0  0  0  0  0  0  0  0
    6.4316   -8.7075    0.0000 C   0  0  0  0  0  0  0  0  0  0  0  0
    7.1385   -8.2951    0.0000 O   0  0  0  0  0  0  0  0  0  0  0  0
    8.5730   -6.6478    0.0000 Cl  0  0  0  0  0  0  0  0  0  0  0  0
    5.7166   -6.6455    0.0000 Cl  0  0  0  0  0  0  0  0  0  0  0  0
  1  2  1  0  0  0  0
  2  3  1  0  0  0  0
  2  4  1  0  0  0  0
  4  5  2  0  0  0  0
  5  6  1  0  0  0  0
  6  7  2  0  0  0  0
  7  8  1  0  0  0  0
  8  9  2  0  0  0  0
  9  4  1  0  0  0  0
  3 10  2  0  0  0  0
 10 11  1  0  0  0  0
 11 12  2  0  0  0  0
 12 13  1  0  0  0  0
 13 14  2  0  0  0  0
 14  3  1  0  0  0  0
  1 15  2  0  0  0  0
 15 16  1  0  0  0  0
 16 17  2  0  0  0  0
 17 18  1  0  0  0  0
 18 19  2  0  0  0  0
 19  1  1  0  0  0  0
  2 20  1  0  0  0  0
  5 21  1  0  0  0  0
 15 22  1  0  0  0  0
M  END
> <Molecule Name>
DNDI1255538

> <CDD Number>
CDD-1535154

> <IC50_uM>
1.06 (n=1)

$$$$

SketchEl molfile

 23 25  0  0  0  0  0  0  0  0999 V2000
    7.1475   -7.8863    0.0000 C   0  0  0  0  0  0  0  0  0  0  0  0
    7.8626   -7.4735    0.0000 C   0  0  0  0  0  0  0  0  0  0  0  0
    8.5776   -7.8863    0.0000 C   0  0  0  0  0  0  0  0  0  0  0  0
    7.8626   -6.6478    0.0000 C   0  0  0  0  0  0  0  0  0  0  0  0
    8.5809   -6.2386    0.0000 C   0  0  0  0  0  0  0  0  0  0  0  0
    8.5813   -5.4137    0.0000 C   0  0  0  0  0  0  0  0  0  0  0  0
    7.8657   -5.0000    0.0000 C   0  0  0  0  0  0  0  0  0  0  0  0
    7.1483   -5.4173    0.0000 C   0  0  0  0  0  0  0  0  0  0  0  0
    7.1515   -6.2408    0.0000 C   0  0  0  0  0  0  0  0  0  0  0  0
    8.5751   -8.7131    0.0000 C   0  0  0  0  0  0  0  0  0  0  0  0
    9.2893   -9.1258    0.0000 N   0  0  0  0  0  0  0  0  0  0  0  0
   10.0053   -8.7129    0.0000 C   0  0  0  0  0  0  0  0  0  0  0  0
   10.0026   -7.8830    0.0000 N   0  3  0  0  0  0  0  0  0  0  0  0
    9.2879   -7.4740    0.0000 C   0  0  0  0  0  0  0  0  0  0  0  0
    6.4330   -7.4705    0.0000 C   0  0  0  0  0  0  0  0  0  0  0  0
    5.7184   -7.8827    0.0000 C   0  0  0  0  0  0  0  0  0  0  0  0
    5.7180   -8.7092    0.0000 C   0  0  0  0  0  0  0  0  0  0  0  0
    6.4380   -9.1219    0.0000 C   0  0  0  0  0  0  0  0  0  0  0  0
    7.1496   -8.7074    0.0000 C   0  0  0  0  0  0  0  0  0  0  0  0
    7.8564   -8.2950    0.0000 O   0  0  0  0  0  0  0  0  0  0  0  0
    9.2909   -6.6478    0.0000 Cl  0  0  0  0  0  0  0  0  0  0  0  0
    5.0000   -9.1165    0.0000 Cl  0  0  0  0  0  0  0  0  0  0  0  0
   10.7156   -7.4680    0.0000 O   0  5  0  0  0  0  0  0  0  0  0  0
  1  2  1  0  0  0  0
  2  3  1  0  0  0  0
  2  4  1  0  0  0  0
  4  5  2  0  0  0  0
  5  6  1  0  0  0  0
  6  7  2  0  0  0  0
  7  8  1  0  0  0  0
  8  9  2  0  0  0  0
  9  4  1  0  0  0  0
  3 10  2  0  0  0  0
 10 11  1  0  0  0  0
 11 12  2  0  0  0  0
 12 13  1  0  0  0  0
 13 14  2  0  0  0  0
 14  3  1  0  0  0  0
  1 15  2  0  0  0  0
 15 16  1  0  0  0  0
 16 17  2  0  0  0  0
 17 18  1  0  0  0  0
 18 19  2  0  0  0  0
 19  1  1  0  0  0  0
  2 20  1  0  0  0  0
  5 21  1  0  0  0  0
 17 22  1  0  0  0  0
 13 23  1  0  0  0  0
M  CHG  2  13   1  23  -1
M  END
> <Molecule Name>
DNDI1255541

> <CDD Number>
CDD-1535155

> <IC50_uM>
14.53 (n=1)

$$$$

SketchEl molfile

 21 23  0  0  0  0  0  0  0  0999 V2000
    7.1471   -7.8858    0.0000 C   0  0  0  0  0  0  0  0  0  0  0  0
    7.8621   -7.4731    0.0000 C   0  0  0  0  0  0  0  0  0  0  0  0
    8.5770   -7.8858    0.0000 C   0  0  0  0  0  0  0  0  0  0  0  0
    7.8621   -6.6475    0.0000 C   0  0  0  0  0  0  0  0  0  0  0  0
    8.5803   -6.2384    0.0000 C   0  0  0  0  0  0  0  0  0  0  0  0
    8.5807   -5.4137    0.0000 C   0  0  0  0  0  0  0  0  0  0  0  0
    7.8652   -5.0000    0.0000 C   0  0  0  0  0  0  0  0  0  0  0  0
    7.1479   -5.4173    0.0000 C   0  0  0  0  0  0  0  0  0  0  0  0
    7.1511   -6.2406    0.0000 C   0  0  0  0  0  0  0  0  0  0  0  0
    8.5745   -8.7125    0.0000 C   0  0  0  0  0  0  0  0  0  0  0  0
    9.2885   -9.1251    0.0000 N   0  0  0  0  0  0  0  0  0  0  0  0
   10.0044   -8.7123    0.0000 C   0  0  0  0  0  0  0  0  0  0  0  0
   10.0017   -7.8825    0.0000 N   0  0  0  0  0  0  0  0  0  0  0  0
    9.2871   -7.4736    0.0000 C   0  0  0  0  0  0  0  0  0  0  0  0
    6.4327   -7.4701    0.0000 C   0  0  0  0  0  0  0  0  0  0  0  0
    5.7183   -7.8822    0.0000 C   0  0  0  0  0  0  0  0  0  0  0  0
    5.7179   -8.7086    0.0000 C   0  0  0  0  0  0  0  0  0  0  0  0
    6.4377   -9.1212    0.0000 C   0  0  0  0  0  0  0  0  0  0  0  0
    7.1492   -8.7068    0.0000 C   0  0  0  0  0  0  0  0  0  0  0  0
    9.2901   -6.6475    0.0000 Cl  0  0  0  0  0  0  0  0  0  0  0  0
    5.0000   -9.1158    0.0000 Cl  0  0  0  0  0  0  0  0  0  0  0  0
  1  2  1  0  0  0  0
  2  3  1  0  0  0  0
  2  4  1  0  0  0  0
  4  5  2  0  0  0  0
  5  6  1  0  0  0  0
  6  7  2  0  0  0  0
  7  8  1  0  0  0  0
  8  9  2  0  0  0  0
  9  4  1  0  0  0  0
  3 10  2  0  0  0  0
 10 11  1  0  0  0  0
 11 12  2  0  0  0  0
 12 13  1  0  0  0  0
 13 14  2  0  0  0  0
 14  3  1  0  0  0  0
  1 15  2  0  0  0  0
 15 16  1  0  0  0  0
 16 17  2  0  0  0  0
 17 18  1  0  0  0  0
 18 19  2  0  0  0  0
 19  1  1  0  0  0  0
  5 20  1  0  0  0  0
 17 21  1  0  0  0  0
M  END
> <Molecule Name>
DNDI1255544

> <CDD Number>
CDD-1535156

> <IC50_uM>
1.07 (n=1)

$$$$

SketchEl molfile

 22 24  0  0  0  0  0  0  0  0999 V2000
    7.1471   -7.8858    0.0000 C   0  0  0  0  0  0  0  0  0  0  0  0
    7.8621   -7.4731    0.0000 C   0  0  0  0  0  0  0  0  0  0  0  0
    8.5770   -7.8858    0.0000 C   0  0  0  0  0  0  0  0  0  0  0  0
    7.8621   -6.6475    0.0000 C   0  0  0  0  0  0  0  0  0  0  0  0
    8.5803   -6.2384    0.0000 C   0  0  0  0  0  0  0  0  0  0  0  0
    8.5807   -5.4137    0.0000 C   0  0  0  0  0  0  0  0  0  0  0  0
    7.8652   -5.0000    0.0000 C   0  0  0  0  0  0  0  0  0  0  0  0
    7.1479   -5.4173    0.0000 C   0  0  0  0  0  0  0  0  0  0  0  0
    7.1511   -6.2406    0.0000 C   0  0  0  0  0  0  0  0  0  0  0  0
    8.5745   -8.7125    0.0000 C   0  0  0  0  0  0  0  0  0  0  0  0
    9.2885   -9.1251    0.0000 C   0  0  0  0  0  0  0  0  0  0  0  0
   10.0044   -8.7123    0.0000 C   0  0  0  0  0  0  0  0  0  0  0  0
   10.0017   -7.8825    0.0000 N   0  0  0  0  0  0  0  0  0  0  0  0
    9.2871   -7.4736    0.0000 C   0  0  0  0  0  0  0  0  0  0  0  0
    6.4327   -7.4701    0.0000 C   0  0  0  0  0  0  0  0  0  0  0  0
    5.7183   -7.8822    0.0000 C   0  0  0  0  0  0  0  0  0  0  0  0
    5.7179   -8.7086    0.0000 C   0  0  0  0  0  0  0  0  0  0  0  0
    6.4377   -9.1212    0.0000 C   0  0  0  0  0  0  0  0  0  0  0  0
    7.1492   -8.7068    0.0000 C   0  0  0  0  0  0  0  0  0  0  0  0
    9.2901   -6.6475    0.0000 Cl  0  0  0  0  0  0  0  0  0  0  0  0
    5.0000   -9.1158    0.0000 Cl  0  0  0  0  0  0  0  0  0  0  0  0
    8.4454   -6.8897    0.0000 O   0  0  0  0  0  0  0  0  0  0  0  0
  1  2  1  0  0  0  0
  2  3  1  0  0  0  0
  2  4  1  0  0  0  0
  4  5  2  0  0  0  0
  5  6  1  0  0  0  0
  6  7  2  0  0  0  0
  7  8  1  0  0  0  0
  8  9  2  0  0  0  0
  9  4  1  0  0  0  0
  3 10  2  0  0  0  0
 10 11  1  0  0  0  0
 11 12  2  0  0  0  0
 12 13  1  0  0  0  0
 13 14  2  0  0  0  0
 14  3  1  0  0  0  0
  1 15  2  0  0  0  0
 15 16  1  0  0  0  0
 16 17  2  0  0  0  0
 17 18  1  0  0  0  0
 18 19  2  0  0  0  0
 19  1  1  0  0  0  0
  5 20  1  0  0  0  0
 17 21  1  0  0  0  0
  2 22  1  0  0  0  0
M  END
> <Molecule Name>
DNDI1255545

> <CDD Number>
CDD-1535157

> <IC50_uM>
0.238117617995813 ร/รท 1.19447425720621 (n=2)

$$$$

SketchEl molfile

 22 24  0  0  0  0  0  0  0  0999 V2000
    7.1471   -7.8858    0.0000 C   0  0  0  0  0  0  0  0  0  0  0  0
    7.8621   -7.4731    0.0000 C   0  0  0  0  0  0  0  0  0  0  0  0
    8.5770   -7.8858    0.0000 C   0  0  0  0  0  0  0  0  0  0  0  0
    7.8621   -6.6475    0.0000 C   0  0  0  0  0  0  0  0  0  0  0  0
    8.5803   -6.2384    0.0000 C   0  0  0  0  0  0  0  0  0  0  0  0
    8.5807   -5.4137    0.0000 C   0  0  0  0  0  0  0  0  0  0  0  0
    7.8652   -5.0000    0.0000 C   0  0  0  0  0  0  0  0  0  0  0  0
    7.1479   -5.4173    0.0000 C   0  0  0  0  0  0  0  0  0  0  0  0
    7.1511   -6.2406    0.0000 C   0  0  0  0  0  0  0  0  0  0  0  0
    8.5745   -8.7125    0.0000 N   0  0  0  0  0  0  0  0  0  0  0  0
    9.2885   -9.1251    0.0000 C   0  0  0  0  0  0  0  0  0  0  0  0
   10.0044   -8.7123    0.0000 C   0  0  0  0  0  0  0  0  0  0  0  0
   10.0017   -7.8825    0.0000 C   0  0  0  0  0  0  0  0  0  0  0  0
    9.2871   -7.4736    0.0000 C   0  0  0  0  0  0  0  0  0  0  0  0
    6.4327   -7.4701    0.0000 C   0  0  0  0  0  0  0  0  0  0  0  0
    5.7183   -7.8822    0.0000 C   0  0  0  0  0  0  0  0  0  0  0  0
    5.7179   -8.7086    0.0000 C   0  0  0  0  0  0  0  0  0  0  0  0
    6.4377   -9.1212    0.0000 C   0  0  0  0  0  0  0  0  0  0  0  0
    7.1492   -8.7068    0.0000 C   0  0  0  0  0  0  0  0  0  0  0  0
    9.2901   -6.6475    0.0000 Cl  0  0  0  0  0  0  0  0  0  0  0  0
    5.0000   -9.1158    0.0000 Cl  0  0  0  0  0  0  0  0  0  0  0  0
    8.4454   -6.8897    0.0000 O   0  0  0  0  0  0  0  0  0  0  0  0
  1  2  1  0  0  0  0
  2  3  1  0  0  0  0
  2  4  1  0  0  0  0
  4  5  2  0  0  0  0
  5  6  1  0  0  0  0
  6  7  2  0  0  0  0
  7  8  1  0  0  0  0
  8  9  2  0  0  0  0
  9  4  1  0  0  0  0
  3 10  2  0  0  0  0
 10 11  1  0  0  0  0
 11 12  2  0  0  0  0
 12 13  1  0  0  0  0
 13 14  2  0  0  0  0
 14  3  1  0  0  0  0
  1 15  2  0  0  0  0
 15 16  1  0  0  0  0
 16 17  2  0  0  0  0
 17 18  1  0  0  0  0
 18 19  2  0  0  0  0
 19  1  1  0  0  0  0
  5 20  1  0  0  0  0
 17 21  1  0  0  0  0
  2 22  1  0  0  0  0
M  END
> <Molecule Name>
DNDI1255546

> <CDD Number>
CDD-1535158

> <IC50_uM>
27.42 (n=1)

$$$$

SketchEl molfile

 21 23  0  0  0  0  0  0  0  0999 V2000
    6.4295   -7.8864    0.0000 C   0  0  0  0  0  0  0  0  0  0  0  0
    7.1447   -7.4736    0.0000 C   0  0  0  0  0  0  0  0  0  0  0  0
    7.8597   -7.8864    0.0000 C   0  0  0  0  0  0  0  0  0  0  0  0
    7.1447   -6.6478    0.0000 C   0  0  0  0  0  0  0  0  0  0  0  0
    7.8630   -6.2386    0.0000 C   0  0  0  0  0  0  0  0  0  0  0  0
    7.8634   -5.4137    0.0000 C   0  0  0  0  0  0  0  0  0  0  0  0
    7.1478   -5.0000    0.0000 C   0  0  0  0  0  0  0  0  0  0  0  0
    6.4303   -5.4173    0.0000 C   0  0  0  0  0  0  0  0  0  0  0  0
    6.4335   -6.2408    0.0000 C   0  0  0  0  0  0  0  0  0  0  0  0
    7.8572   -8.7132    0.0000 C   0  0  0  0  0  0  0  0  0  0  0  0
    8.5714   -9.1259    0.0000 N   0  0  0  0  0  0  0  0  0  0  0  0
    9.2874   -8.7130    0.0000 C   0  0  0  0  0  0  0  0  0  0  0  0
    9.2847   -7.8831    0.0000 N   0  0  0  0  0  0  0  0  0  0  0  0
    8.5700   -7.4741    0.0000 C   0  0  0  0  0  0  0  0  0  0  0  0
    5.7150   -7.4706    0.0000 C   0  0  0  0  0  0  0  0  0  0  0  0
    5.0004   -7.8828    0.0000 C   0  0  0  0  0  0  0  0  0  0  0  0
    5.0000   -8.7093    0.0000 C   0  0  0  0  0  0  0  0  0  0  0  0
    5.7200   -9.1220    0.0000 C   0  0  0  0  0  0  0  0  0  0  0  0
    6.4316   -8.7075    0.0000 C   0  0  0  0  0  0  0  0  0  0  0  0
    7.1385   -8.2951    0.0000 O   0  0  0  0  0  0  0  0  0  0  0  0
    8.5730   -6.6478    0.0000 Cl  0  0  0  0  0  0  0  0  0  0  0  0
  1  2  1  0  0  0  0
  2  3  1  0  0  0  0
  2  4  1  0  0  0  0
  4  5  2  0  0  0  0
  5  6  1  0  0  0  0
  6  7  2  0  0  0  0
  7  8  1  0  0  0  0
  8  9  2  0  0  0  0
  9  4  1  0  0  0  0
  3 10  2  0  0  0  0
 10 11  1  0  0  0  0
 11 12  2  0  0  0  0
 12 13  1  0  0  0  0
 13 14  2  0  0  0  0
 14  3  1  0  0  0  0
  1 15  2  0  0  0  0
 15 16  1  0  0  0  0
 16 17  2  0  0  0  0
 17 18  1  0  0  0  0
 18 19  2  0  0  0  0
 19  1  1  0  0  0  0
  2 20  1  0  0  0  0
  5 21  1  0  0  0  0
M  END
> <Molecule Name>
DNDI1255601

> <CDD Number>
CDD-1535159

> <IC50_uM>
2.51 (n=1)

$$$$

SketchEl molfile

 23 25  0  0  0  0  0  0  0  0999 V2000
    7.8585   -7.8864    0.0000 C   0  0  0  0  0  0  0  0  0  0  0  0
    8.5736   -7.4736    0.0000 C   0  0  0  0  0  0  0  0  0  0  0  0
    9.2886   -7.8864    0.0000 C   0  0  0  0  0  0  0  0  0  0  0  0
    8.5736   -6.6478    0.0000 C   0  0  0  0  0  0  0  0  0  0  0  0
    9.2919   -6.2386    0.0000 C   0  0  0  0  0  0  0  0  0  0  0  0
    9.2923   -5.4137    0.0000 C   0  0  0  0  0  0  0  0  0  0  0  0
    8.5767   -5.0000    0.0000 C   0  0  0  0  0  0  0  0  0  0  0  0
    7.8593   -5.4173    0.0000 C   0  0  0  0  0  0  0  0  0  0  0  0
    7.8625   -6.2408    0.0000 C   0  0  0  0  0  0  0  0  0  0  0  0
    9.2861   -8.7132    0.0000 C   0  0  0  0  0  0  0  0  0  0  0  0
   10.0003   -9.1259    0.0000 N   0  0  0  0  0  0  0  0  0  0  0  0
   10.7165   -8.7130    0.0000 C   0  0  0  0  0  0  0  0  0  0  0  0
   10.7138   -7.8831    0.0000 N   0  0  0  0  0  0  0  0  0  0  0  0
    9.9989   -7.4741    0.0000 C   0  0  0  0  0  0  0  0  0  0  0  0
    7.1440   -7.4706    0.0000 C   0  0  0  0  0  0  0  0  0  0  0  0
    6.4293   -7.8828    0.0000 C   0  0  0  0  0  0  0  0  0  0  0  0
    6.4289   -8.7093    0.0000 C   0  0  0  0  0  0  0  0  0  0  0  0
    7.1490   -9.1220    0.0000 C   0  0  0  0  0  0  0  0  0  0  0  0
    7.8606   -8.7075    0.0000 C   0  0  0  0  0  0  0  0  0  0  0  0
    8.5674   -8.2951    0.0000 O   0  0  0  0  0  0  0  0  0  0  0  0
   10.0019   -6.6478    0.0000 Cl  0  0  0  0  0  0  0  0  0  0  0  0
    5.7150   -9.1227    0.0000 O   0  0  0  0  0  0  0  0  0  0  0  0
    5.0000   -8.7112    0.0000 C   0  0  0  0  0  0  0  0  0  0  0  0
  1  2  1  0  0  0  0
  2  3  1  0  0  0  0
  2  4  1  0  0  0  0
  4  5  2  0  0  0  0
  5  6  1  0  0  0  0
  6  7  2  0  0  0  0
  7  8  1  0  0  0  0
  8  9  2  0  0  0  0
  9  4  1  0  0  0  0
  3 10  2  0  0  0  0
 10 11  1  0  0  0  0
 11 12  2  0  0  0  0
 12 13  1  0  0  0  0
 13 14  2  0  0  0  0
 14  3  1  0  0  0  0
  1 15  2  0  0  0  0
 15 16  1  0  0  0  0
 16 17  2  0  0  0  0
 17 18  1  0  0  0  0
 18 19  2  0  0  0  0
 19  1  1  0  0  0  0
  2 20  1  0  0  0  0
  5 21  1  0  0  0  0
 17 22  1  0  0  0  0
 22 23  1  0  0  0  0
M  END
> <Molecule Name>
DNDI1255602

> <CDD Number>
CDD-1535160

> <IC50_uM>
0.393 (n=1)

$$$$

SketchEl molfile

 23 25  0  0  0  0  0  0  0  0999 V2000
    7.1474   -7.8862    0.0000 C   0  0  0  0  0  0  0  0  0  0  0  0
    7.8624   -7.4734    0.0000 C   0  0  0  0  0  0  0  0  0  0  0  0
    8.5774   -7.8862    0.0000 C   0  0  0  0  0  0  0  0  0  0  0  0
    7.8624   -6.6477    0.0000 C   0  0  0  0  0  0  0  0  0  0  0  0
    8.5807   -6.2386    0.0000 C   0  0  0  0  0  0  0  0  0  0  0  0
    8.5811   -5.4137    0.0000 C   0  0  0  0  0  0  0  0  0  0  0  0
    7.8655   -5.0000    0.0000 C   0  0  0  0  0  0  0  0  0  0  0  0
    7.1482   -5.4173    0.0000 C   0  0  0  0  0  0  0  0  0  0  0  0
    7.1514   -6.2408    0.0000 C   0  0  0  0  0  0  0  0  0  0  0  0
    8.5749   -8.7129    0.0000 C   0  0  0  0  0  0  0  0  0  0  0  0
    9.2891   -9.1256    0.0000 N   0  0  0  0  0  0  0  0  0  0  0  0
   10.0051   -8.7127    0.0000 C   0  0  0  0  0  0  0  0  0  0  0  0
   10.0024   -7.8829    0.0000 N   0  0  0  0  0  0  0  0  0  0  0  0
    6.4329   -7.4704    0.0000 C   0  0  0  0  0  0  0  0  0  0  0  0
    5.7184   -7.8826    0.0000 C   0  0  0  0  0  0  0  0  0  0  0  0
    5.7180   -8.7090    0.0000 C   0  0  0  0  0  0  0  0  0  0  0  0
    6.4379   -9.1217    0.0000 C   0  0  0  0  0  0  0  0  0  0  0  0
    7.1495   -8.7072    0.0000 C   0  0  0  0  0  0  0  0  0  0  0  0
    7.8562   -8.2948    0.0000 O   0  0  0  0  0  0  0  0  0  0  0  0
    9.2907   -6.6477    0.0000 O   0  0  0  0  0  0  0  0  0  0  0  0
    5.0000   -9.1163    0.0000 Cl  0  0  0  0  0  0  0  0  0  0  0  0
    9.2913   -7.4727    0.0000 C   0  0  0  0  0  0  0  0  0  0  0  0
   10.0049   -6.2347    0.0000 C   0  0  0  0  0  0  0  0  0  0  0  0
  1  2  1  0  0  0  0
  2  3  1  0  0  0  0
  2  4  1  0  0  0  0
  4  5  2  0  0  0  0
  5  6  1  0  0  0  0
  6  7  2  0  0  0  0
  7  8  1  0  0  0  0
  8  9  2  0  0  0  0
  9  4  1  0  0  0  0
  3 10  2  0  0  0  0
 10 11  1  0  0  0  0
 11 12  2  0  0  0  0
 12 13  1  0  0  0  0
 13 22  2  0  0  0  0
 22  3  1  0  0  0  0
  1 14  2  0  0  0  0
 14 15  1  0  0  0  0
 15 16  2  0  0  0  0
 16 17  1  0  0  0  0
 17 18  2  0  0  0  0
 18  1  1  0  0  0  0
  2 19  1  0  0  0  0
  5 20  1  0  0  0  0
 16 21  1  0  0  0  0
 20 23  1  0  0  0  0
M  END
> <Molecule Name>
DNDI1255610

> <CDD Number>
CDD-1535161

> <IC50_uM>
1.14 (n=1)

$$$$

SketchEl molfile

 19 20  0  0  0  0  0  0  0  0999 V2000
    5.0012   -6.9145    0.0000 C   0  0  0  0  0  0  0  0  0  0  0  0
    5.0000   -7.7416    0.0000 C   0  0  0  0  0  0  0  0  0  0  0  0
    5.7146   -8.1543    0.0000 N   0  0  0  0  0  0  0  0  0  0  0  0
    6.4308   -7.7411    0.0000 C   0  0  0  0  0  0  0  0  0  0  0  0
    6.4280   -6.9108    0.0000 C   0  0  0  0  0  0  0  0  0  0  0  0
    5.7128   -6.5018    0.0000 C   0  0  0  0  0  0  0  0  0  0  0  0
    7.1407   -6.4958    0.0000 C   0  0  0  0  0  0  0  0  0  0  0  0
    7.8565   -6.9055    0.0000 C   0  0  0  0  0  0  0  0  0  0  0  0
    8.5692   -6.4904    0.0000 C   0  0  0  0  0  0  0  0  0  0  0  0
    7.8596   -7.7302    0.0000 N   0  0  0  0  0  0  0  0  0  0  0  0
    7.1469   -8.1453    0.0000 O   0  0  0  0  0  0  0  0  0  0  0  0
    7.1500   -8.9700    0.0000 C   0  0  0  0  0  0  0  0  0  0  0  0
    9.2834   -6.9035    0.0000 C   0  0  0  0  0  0  0  0  0  0  0  0
    9.9956   -6.4891    0.0000 C   0  0  0  0  0  0  0  0  0  0  0  0
    9.9929   -5.6635    0.0000 C   0  0  0  0  0  0  0  0  0  0  0  0
    9.2721   -5.2540    0.0000 C   0  0  0  0  0  0  0  0  0  0  0  0
    8.5628   -5.6707    0.0000 C   0  0  0  0  0  0  0  0  0  0  0  0
   10.7051   -5.2475    0.0000 Cl  0  0  0  0  0  0  0  0  0  0  0  0
    7.8454   -5.2638    0.0000 Cl  0  0  0  0  0  0  0  0  0  0  0  0
  1  2  2  0  0  0  0
  2  3  1  0  0  0  0
  3  4  2  0  0  0  0
  4  5  1  0  0  0  0
  5  6  2  0  0  0  0
  6  1  1  0  0  0  0
  5  7  1  0  0  0  0
  7  8  1  0  0  0  0
  8  9  1  0  0  0  0
  8 10  2  0  0  0  0
 10 11  1  0  0  0  0
 11 12  1  0  0  0  0
  9 13  2  0  0  0  0
 13 14  1  0  0  0  0
 14 15  2  0  0  0  0
 15 16  1  0  0  0  0
 16 17  2  0  0  0  0
 17  9  1  0  0  0  0
 15 18  1  0  0  0  0
 17 19  1  0  0  0  0
M  END
> <Molecule Name>
DNDI1255613

> <CDD Number>
CDD-1535162

> <IC50_uM>
0.307294528608157 ร/รท 1.49874703312545 (n=3)

$$$$

SketchEl molfile

 22 24  0  0  0  0  0  0  0  0999 V2000
    7.1475   -7.8863    0.0000 C   0  0  0  0  0  0  0  0  0  0  0  0
    7.8626   -7.4735    0.0000 C   0  0  0  0  0  0  0  0  0  0  0  0
    8.5776   -7.8863    0.0000 C   0  0  0  0  0  0  0  0  0  0  0  0
    7.8626   -6.6478    0.0000 C   0  0  0  0  0  0  0  0  0  0  0  0
    8.5809   -6.2386    0.0000 C   0  0  0  0  0  0  0  0  0  0  0  0
    8.5813   -5.4137    0.0000 C   0  0  0  0  0  0  0  0  0  0  0  0
    7.8657   -5.0000    0.0000 C   0  0  0  0  0  0  0  0  0  0  0  0
    7.1483   -5.4173    0.0000 C   0  0  0  0  0  0  0  0  0  0  0  0
    7.1515   -6.2408    0.0000 C   0  0  0  0  0  0  0  0  0  0  0  0
    8.5751   -8.7131    0.0000 C   0  0  0  0  0  0  0  0  0  0  0  0
    9.2893   -9.1258    0.0000 N   0  0  0  0  0  0  0  0  0  0  0  0
   10.0053   -8.7129    0.0000 C   0  0  0  0  0  0  0  0  0  0  0  0
   10.0026   -7.8830    0.0000 N   0  0  0  0  0  0  0  0  0  0  0  0
    9.2879   -7.4740    0.0000 C   0  0  0  0  0  0  0  0  0  0  0  0
    6.4330   -7.4705    0.0000 C   0  0  0  0  0  0  0  0  0  0  0  0
    5.7184   -7.8827    0.0000 C   0  0  0  0  0  0  0  0  0  0  0  0
    5.7180   -8.7092    0.0000 C   0  0  0  0  0  0  0  0  0  0  0  0
    6.4380   -9.1219    0.0000 C   0  0  0  0  0  0  0  0  0  0  0  0
    7.1496   -8.7074    0.0000 C   0  0  0  0  0  0  0  0  0  0  0  0
    7.8564   -8.2950    0.0000 O   0  0  0  0  0  0  0  0  0  0  0  0
    9.2909   -6.6478    0.0000 Cl  0  0  0  0  0  0  0  0  0  0  0  0
    5.0000   -9.1165    0.0000 F   0  0  0  0  0  0  0  0  0  0  0  0
  1  2  1  0  0  0  0
  2  3  1  0  0  0  0
  2  4  1  0  0  0  0
  4  5  2  0  0  0  0
  5  6  1  0  0  0  0
  6  7  2  0  0  0  0
  7  8  1  0  0  0  0
  8  9  2  0  0  0  0
  9  4  1  0  0  0  0
  3 10  2  0  0  0  0
 10 11  1  0  0  0  0
 11 12  2  0  0  0  0
 12 13  1  0  0  0  0
 13 14  2  0  0  0  0
 14  3  1  0  0  0  0
  1 15  2  0  0  0  0
 15 16  1  0  0  0  0
 16 17  2  0  0  0  0
 17 18  1  0  0  0  0
 18 19  2  0  0  0  0
 19  1  1  0  0  0  0
  2 20  1  0  0  0  0
  5 21  1  0  0  0  0
 17 22  1  0  0  0  0
M  END
> <Molecule Name>
DNDI1255614

> <CDD Number>
CDD-1535141

> <IC50_uM>
1.14 (n=1)

$$$$

SketchEl molfile

 19 21  0  0  0  0  0  0  0  0999 V2000
    7.8587   -6.9521    0.0000 C   0  0  0  0  0  0  0  0  0  0  0  0
    8.5737   -6.5393    0.0000 C   0  0  0  0  0  0  0  0  0  0  0  0
    9.2887   -6.9521    0.0000 C   0  0  0  0  0  0  0  0  0  0  0  0
    9.2862   -7.7788    0.0000 C   0  0  0  0  0  0  0  0  0  0  0  0
   10.0004   -8.1915    0.0000 N   0  0  0  0  0  0  0  0  0  0  0  0
   10.7164   -7.7786    0.0000 C   0  0  0  0  0  0  0  0  0  0  0  0
   10.7137   -6.9488    0.0000 N   0  0  0  0  0  0  0  0  0  0  0  0
    9.9990   -6.5398    0.0000 C   0  0  0  0  0  0  0  0  0  0  0  0
    7.1442   -6.5363    0.0000 C   0  0  0  0  0  0  0  0  0  0  0  0
    6.4296   -6.9485    0.0000 C   0  0  0  0  0  0  0  0  0  0  0  0
    6.4292   -7.7749    0.0000 C   0  0  0  0  0  0  0  0  0  0  0  0
    7.1492   -8.1876    0.0000 C   0  0  0  0  0  0  0  0  0  0  0  0
    7.8608   -7.7731    0.0000 C   0  0  0  0  0  0  0  0  0  0  0  0
    8.5675   -7.3607    0.0000 O   0  0  0  0  0  0  0  0  0  0  0  0
    5.7113   -8.1822    0.0000 O   0  0  0  0  0  0  0  0  0  0  0  0
    5.0000   -7.7643    0.0000 C   0  0  0  0  0  0  0  0  0  0  0  0
    8.5769   -5.7143    0.0000 C   0  0  0  0  0  0  0  0  0  0  0  0
    8.9877   -5.0031    0.0000 C   0  0  0  0  0  0  0  0  0  0  0  0
    8.1628   -5.0000    0.0000 C   0  0  0  0  0  0  0  0  0  0  0  0
  1  2  1  0  0  0  0
  2  3  1  0  0  0  0
  3  4  2  0  0  0  0
  4  5  1  0  0  0  0
  5  6  2  0  0  0  0
  6  7  1  0  0  0  0
  7  8  2  0  0  0  0
  8  3  1  0  0  0  0
  1  9  2  0  0  0  0
  9 10  1  0  0  0  0
 10 11  2  0  0  0  0
 11 12  1  0  0  0  0
 12 13  2  0  0  0  0
 13  1  1  0  0  0  0
  2 14  1  0  0  0  0
 11 15  1  0  0  0  0
 15 16  1  0  0  0  0
  2 17  1  0  0  0  0
 18 17  1  0  0  0  0
 19 18  1  0  0  0  0
 17 19  1  0  0  0  0
M  END
> <Molecule Name>
DNDI1255615

> <CDD Number>
CDD-1535140

> <IC50_uM>
20.94 (n=1)

$$$$

SketchEl molfile

 15 15  0  0  0  0  0  0  0  0999 V2000
    6.4372   -7.4725    0.0000 C   0  0  0  0  0  0  0  0  0  0  0  0
    6.4372   -8.2981    0.0000 C   0  0  0  0  0  0  0  0  0  0  0  0
    7.1497   -8.7067    0.0000 N   0  0  0  0  0  0  0  0  0  0  0  0
    7.8622   -8.2981    0.0000 C   0  0  0  0  0  0  0  0  0  0  0  0
    7.8622   -7.4725    0.0000 N   0  0  0  0  0  0  0  0  0  0  0  0
    7.1497   -7.0556    0.0000 C   0  0  0  0  0  0  0  0  0  0  0  0
    5.7228   -8.7119    0.0000 C   0  0  0  0  0  0  0  0  0  0  0  0
    7.1497   -6.2300    0.0000 O   0  0  0  0  0  0  0  0  0  0  0  0
    5.7210   -7.0618    0.0000 C   0  0  0  0  0  0  0  0  0  0  0  0
    5.7186   -6.2363    0.0000 C   0  0  0  0  0  0  0  0  0  0  0  0
    5.0024   -5.8256    0.0000 C   0  0  0  0  0  0  0  0  0  0  0  0
    5.0000   -5.0000    0.0000 C   0  0  0  0  0  0  0  0  0  0  0  0
    8.5765   -8.7119    0.0000 N   0  0  0  0  0  0  0  0  0  0  0  0
    8.5753   -9.5375    0.0000 C   0  0  0  0  0  0  0  0  0  0  0  0
    9.2897   -9.9513    0.0000 C   0  0  0  0  0  0  0  0  0  0  0  0
  1  2  2  0  0  0  0
  1  6  1  0  0  0  0
  2  3  1  0  0  0  0
  3  4  2  0  0  0  0
  4  5  1  0  0  0  0
  5  6  1  0  0  0  0
  2  7  1  0  0  0  0
  6  8  2  0  0  0  0
  1  9  1  0  0  0  0
  9 10  1  0  0  0  0
 10 11  1  0  0  0  0
 11 12  1  0  0  0  0
  4 13  1  0  0  0  0
 13 14  1  0  0  0  0
 14 15  1  0  0  0  0
M  END
> <Molecule Name>
DNDI1255616

> <CDD Number>
CDD-1535163

> <IC50_uM>
> 100.0 (n=1)

$$$$

SketchEl molfile

 22 24  0  0  0  0  0  0  0  0999 V2000
    7.1469   -8.7102    0.0000 C   0  0  0  0  0  0  0  0  0  0  0  0
    7.8618   -8.2976    0.0000 C   0  0  0  0  0  0  0  0  0  0  0  0
    8.5766   -8.7102    0.0000 C   0  0  0  0  0  0  0  0  0  0  0  0
    7.8618   -7.4721    0.0000 C   0  0  0  0  0  0  0  0  0  0  0  0
    8.5799   -7.0630    0.0000 C   0  0  0  0  0  0  0  0  0  0  0  0
    8.5803   -6.2383    0.0000 C   0  0  0  0  0  0  0  0  0  0  0  0
    7.8649   -5.8247    0.0000 C   0  0  0  0  0  0  0  0  0  0  0  0
    7.1477   -6.2419    0.0000 C   0  0  0  0  0  0  0  0  0  0  0  0
    7.1509   -7.0652    0.0000 C   0  0  0  0  0  0  0  0  0  0  0  0
    8.5741   -9.5368    0.0000 C   0  0  0  0  0  0  0  0  0  0  0  0
    9.2881   -9.9494    0.0000 N   0  0  0  0  0  0  0  0  0  0  0  0
   10.0040   -9.5366    0.0000 C   0  0  0  0  0  0  0  0  0  0  0  0
   10.0013   -8.7069    0.0000 N   0  0  0  0  0  0  0  0  0  0  0  0
    9.2867   -8.2981    0.0000 C   0  0  0  0  0  0  0  0  0  0  0  0
    6.4326   -8.2946    0.0000 C   0  0  0  0  0  0  0  0  0  0  0  0
    5.7182   -8.7066    0.0000 C   0  0  0  0  0  0  0  0  0  0  0  0
    5.7178   -9.5329    0.0000 C   0  0  0  0  0  0  0  0  0  0  0  0
    6.4376   -9.9455    0.0000 C   0  0  0  0  0  0  0  0  0  0  0  0
    7.1490   -9.5311    0.0000 C   0  0  0  0  0  0  0  0  0  0  0  0
    7.8556   -9.1188    0.0000 O   0  0  0  0  0  0  0  0  0  0  0  0
    5.0000   -9.9401    0.0000 Cl  0  0  0  0  0  0  0  0  0  0  0  0
    7.8638   -5.0000    0.0000 F   0  0  0  0  0  0  0  0  0  0  0  0
  1  2  1  0  0  0  0
  2  3  1  0  0  0  0
  2  4  1  0  0  0  0
  4  5  2  0  0  0  0
  5  6  1  0  0  0  0
  6  7  2  0  0  0  0
  7  8  1  0  0  0  0
  8  9  2  0  0  0  0
  9  4  1  0  0  0  0
  3 10  2  0  0  0  0
 10 11  1  0  0  0  0
 11 12  2  0  0  0  0
 12 13  1  0  0  0  0
 13 14  2  0  0  0  0
 14  3  1  0  0  0  0
  1 15  2  0  0  0  0
 15 16  1  0  0  0  0
 16 17  2  0  0  0  0
 17 18  1  0  0  0  0
 18 19  2  0  0  0  0
 19  1  1  0  0  0  0
  2 20  1  0  0  0  0
 17 21  1  0  0  0  0
  7 22  1  0  0  0  0
M  END
> <Molecule Name>
DNDI1264432

> <CDD Number>
CDD-1535164

> <IC50_uM>
0.641 (n=1)

$$$$

SketchEl molfile

 22 24  0  0  0  0  0  0  0  0999 V2000
    7.1474   -7.8862    0.0000 C   0  0  0  0  0  0  0  0  0  0  0  0
    7.8624   -7.4734    0.0000 C   0  0  0  0  0  0  0  0  0  0  0  0
    8.5774   -7.8862    0.0000 C   0  0  0  0  0  0  0  0  0  0  0  0
    7.8624   -6.6477    0.0000 C   0  0  0  0  0  0  0  0  0  0  0  0
    8.5807   -6.2386    0.0000 C   0  0  0  0  0  0  0  0  0  0  0  0
    8.5811   -5.4137    0.0000 C   0  0  0  0  0  0  0  0  0  0  0  0
    7.8655   -5.0000    0.0000 C   0  0  0  0  0  0  0  0  0  0  0  0
    7.1482   -5.4173    0.0000 C   0  0  0  0  0  0  0  0  0  0  0  0
    7.1514   -6.2408    0.0000 C   0  0  0  0  0  0  0  0  0  0  0  0
    8.5749   -8.7129    0.0000 N   0  0  0  0  0  0  0  0  0  0  0  0
    9.2891   -9.1256    0.0000 C   0  0  0  0  0  0  0  0  0  0  0  0
   10.0050   -8.7127    0.0000 C   0  0  0  0  0  0  0  0  0  0  0  0
   10.0023   -7.8829    0.0000 N   0  0  0  0  0  0  0  0  0  0  0  0
    6.4329   -7.4704    0.0000 C   0  0  0  0  0  0  0  0  0  0  0  0
    5.7184   -7.8826    0.0000 C   0  0  0  0  0  0  0  0  0  0  0  0
    5.7180   -8.7090    0.0000 C   0  0  0  0  0  0  0  0  0  0  0  0
    6.4379   -9.1217    0.0000 C   0  0  0  0  0  0  0  0  0  0  0  0
    7.1495   -8.7072    0.0000 C   0  0  0  0  0  0  0  0  0  0  0  0
    7.8562   -8.2948    0.0000 O   0  0  0  0  0  0  0  0  0  0  0  0
    9.2907   -6.6477    0.0000 Cl  0  0  0  0  0  0  0  0  0  0  0  0
    5.0000   -9.1163    0.0000 Cl  0  0  0  0  0  0  0  0  0  0  0  0
    9.2913   -7.4727    0.0000 C   0  0  0  0  0  0  0  0  0  0  0  0
  1  2  1  0  0  0  0
  2  3  1  0  0  0  0
  2  4  1  0  0  0  0
  4  5  2  0  0  0  0
  5  6  1  0  0  0  0
  6  7  2  0  0  0  0
  7  8  1  0  0  0  0
  8  9  2  0  0  0  0
  9  4  1  0  0  0  0
  3 10  2  0  0  0  0
 10 11  1  0  0  0  0
 11 12  2  0  0  0  0
 12 13  1  0  0  0  0
 13 22  2  0  0  0  0
 22  3  1  0  0  0  0
  1 14  2  0  0  0  0
 14 15  1  0  0  0  0
 15 16  2  0  0  0  0
 16 17  1  0  0  0  0
 17 18  2  0  0  0  0
 18  1  1  0  0  0  0
  2 19  1  0  0  0  0
  5 20  1  0  0  0  0
 16 21  1  0  0  0  0
M  END
> <Molecule Name>
DNDI1264438

> <CDD Number>
CDD-1535165

> <IC50_uM>
0.44 (n=1)

$$$$

SketchEl molfile

 18 19  0  0  0  0  0  0  0  0999 V2000
    7.1473   -6.6475    0.0000 C   0  0  0  0  0  0  0  0  0  0  0  0
    7.8623   -6.2348    0.0000 C   0  0  0  0  0  0  0  0  0  0  0  0
    8.5772   -6.6475    0.0000 C   0  0  0  0  0  0  0  0  0  0  0  0
    7.8623   -5.4092    0.0000 C   0  0  0  0  0  0  0  0  0  0  0  0
    8.5805   -5.0000    0.0000 C   0  0  0  0  0  0  0  0  0  0  0  0
    7.1513   -5.0022    0.0000 C   0  0  0  0  0  0  0  0  0  0  0  0
    8.5747   -7.4742    0.0000 C   0  0  0  0  0  0  0  0  0  0  0  0
    9.2888   -7.8869    0.0000 N   0  0  0  0  0  0  0  0  0  0  0  0
   10.0048   -7.4740    0.0000 C   0  0  0  0  0  0  0  0  0  0  0  0
   10.0021   -6.6442    0.0000 N   0  0  0  0  0  0  0  0  0  0  0  0
    6.4328   -6.2318    0.0000 C   0  0  0  0  0  0  0  0  0  0  0  0
    5.7183   -6.6439    0.0000 C   0  0  0  0  0  0  0  0  0  0  0  0
    5.7179   -7.4703    0.0000 C   0  0  0  0  0  0  0  0  0  0  0  0
    6.4378   -7.8830    0.0000 C   0  0  0  0  0  0  0  0  0  0  0  0
    7.1494   -7.4685    0.0000 C   0  0  0  0  0  0  0  0  0  0  0  0
    7.8561   -7.0562    0.0000 O   0  0  0  0  0  0  0  0  0  0  0  0
    5.0000   -7.8776    0.0000 Cl  0  0  0  0  0  0  0  0  0  0  0  0
    9.2911   -6.2341    0.0000 C   0  0  0  0  0  0  0  0  0  0  0  0
  1  2  1  0  0  0  0
  2  3  1  0  0  0  0
  2  4  1  0  0  0  0
  4  5  1  0  0  0  0
  6  4  1  0  0  0  0
  3  7  2  0  0  0  0
  7  8  1  0  0  0  0
  8  9  2  0  0  0  0
  9 10  1  0  0  0  0
 10 18  2  0  0  0  0
 18  3  1  0  0  0  0
  1 11  2  0  0  0  0
 11 12  1  0  0  0  0
 12 13  2  0  0  0  0
 13 14  1  0  0  0  0
 14 15  2  0  0  0  0
 15  1  1  0  0  0  0
  2 16  1  0  0  0  0
 13 17  1  0  0  0  0
M  END
> <Molecule Name>
DNDI1264439

> <CDD Number>
CDD-1535166

> <IC50_uM>
2.24 (n=1)

$$$$

SketchEl molfile

 22 24  0  0  0  0  0  0  0  0999 V2000
    7.1466   -7.8866    0.0000 C   0  0  0  0  0  0  0  0  0  0  0  0
    7.8614   -7.4740    0.0000 C   0  0  0  0  0  0  0  0  0  0  0  0
    8.5761   -7.8866    0.0000 C   0  0  0  0  0  0  0  0  0  0  0  0
    7.8614   -6.6487    0.0000 C   0  0  0  0  0  0  0  0  0  0  0  0
    8.5736   -8.7131    0.0000 N   0  0  0  0  0  0  0  0  0  0  0  0
    9.2875   -9.1256    0.0000 C   0  0  0  0  0  0  0  0  0  0  0  0
   10.0031   -8.7129    0.0000 C   0  0  0  0  0  0  0  0  0  0  0  0
   10.0005   -7.8833    0.0000 C   0  0  0  0  0  0  0  0  0  0  0  0
    6.4324   -7.4710    0.0000 C   0  0  0  0  0  0  0  0  0  0  0  0
    5.7181   -7.8830    0.0000 C   0  0  0  0  0  0  0  0  0  0  0  0
    5.7177   -8.7092    0.0000 C   0  0  0  0  0  0  0  0  0  0  0  0
    6.4374   -9.1217    0.0000 C   0  0  0  0  0  0  0  0  0  0  0  0
    7.1487   -8.7074    0.0000 C   0  0  0  0  0  0  0  0  0  0  0  0
    7.8552   -8.2952    0.0000 O   0  0  0  0  0  0  0  0  0  0  0  0
    5.0000   -9.1163    0.0000 Cl  0  0  0  0  0  0  0  0  0  0  0  0
    9.2897   -7.4733    0.0000 N   0  0  0  0  0  0  0  0  0  0  0  0
    8.5776   -6.2381    0.0000 C   0  0  0  0  0  0  0  0  0  0  0  0
    8.5780   -5.4135    0.0000 C   0  0  0  0  0  0  0  0  0  0  0  0
    7.8627   -5.0000    0.0000 C   0  0  0  0  0  0  0  0  0  0  0  0
    7.1455   -5.4171    0.0000 C   0  0  0  0  0  0  0  0  0  0  0  0
    7.1487   -6.2403    0.0000 C   0  0  0  0  0  0  0  0  0  0  0  0
    9.2912   -6.6517    0.0000 Cl  0  0  0  0  0  0  0  0  0  0  0  0
  1  2  1  0  0  0  0
  2  3  1  0  0  0  0
  2  4  1  0  0  0  0
  3  5  2  0  0  0  0
  5  6  1  0  0  0  0
  6  7  2  0  0  0  0
  7  8  1  0  0  0  0
  8 16  2  0  0  0  0
 16  3  1  0  0  0  0
  1  9  2  0  0  0  0
  9 10  1  0  0  0  0
 10 11  2  0  0  0  0
 11 12  1  0  0  0  0
 12 13  2  0  0  0  0
 13  1  1  0  0  0  0
  2 14  1  0  0  0  0
 11 15  1  0  0  0  0
  4 17  2  0  0  0  0
 17 18  1  0  0  0  0
 18 19  2  0  0  0  0
 19 20  1  0  0  0  0
 20 21  2  0  0  0  0
 21  4  1  0  0  0  0
 17 22  1  0  0  0  0
M  END
> <Molecule Name>
DNDI1264440

> <CDD Number>
CDD-1535167

> <IC50_uM>
22.9 (n=1)

$$$$

SketchEl molfile

 19 20  0  0  0  0  0  0  0  0999 V2000
    7.1466   -7.8880    0.0000 C   0  0  0  0  0  0  0  0  0  0  0  0
    7.8614   -7.4754    0.0000 C   0  0  0  0  0  0  0  0  0  0  0  0
    8.5761   -7.8880    0.0000 C   0  0  0  0  0  0  0  0  0  0  0  0
    7.8614   -6.6500    0.0000 C   0  0  0  0  0  0  0  0  0  0  0  0
    8.5736   -8.7145    0.0000 N   0  0  0  0  0  0  0  0  0  0  0  0
    9.2875   -9.1270    0.0000 C   0  0  0  0  0  0  0  0  0  0  0  0
   10.0032   -8.7143    0.0000 C   0  0  0  0  0  0  0  0  0  0  0  0
   10.0006   -7.8847    0.0000 N   0  0  0  0  0  0  0  0  0  0  0  0
    6.4324   -7.4724    0.0000 C   0  0  0  0  0  0  0  0  0  0  0  0
    5.7181   -7.8844    0.0000 C   0  0  0  0  0  0  0  0  0  0  0  0
    5.7177   -8.7106    0.0000 C   0  0  0  0  0  0  0  0  0  0  0  0
    6.4374   -9.1231    0.0000 C   0  0  0  0  0  0  0  0  0  0  0  0
    7.1487   -8.7088    0.0000 C   0  0  0  0  0  0  0  0  0  0  0  0
    7.8552   -8.2965    0.0000 O   0  0  0  0  0  0  0  0  0  0  0  0
    5.0000   -9.1177    0.0000 Cl  0  0  0  0  0  0  0  0  0  0  0  0
    9.2898   -7.4747    0.0000 C   0  0  0  0  0  0  0  0  0  0  0  0
    7.1469   -6.2375    0.0000 C   0  0  0  0  0  0  0  0  0  0  0  0
    7.1469   -5.4125    0.0000 C   0  0  0  0  0  0  0  0  0  0  0  0
    6.4325   -5.0000    0.0000 C   0  0  0  0  0  0  0  0  0  0  0  0
  1  2  1  0  0  0  0
  2  3  1  0  0  0  0
  2  4  1  0  0  0  0
  3  5  2  0  0  0  0
  5  6  1  0  0  0  0
  6  7  2  0  0  0  0
  7  8  1  0  0  0  0
  8 16  2  0  0  0  0
 16  3  1  0  0  0  0
  1  9  2  0  0  0  0
  9 10  1  0  0  0  0
 10 11  2  0  0  0  0
 11 12  1  0  0  0  0
 12 13  2  0  0  0  0
 13  1  1  0  0  0  0
  2 14  1  0  0  0  0
 11 15  1  0  0  0  0
  4 17  1  0  0  0  0
 17 18  1  0  0  0  0
 18 19  1  0  0  0  0
M  END
> <Molecule Name>
DNDI1264441

> <CDD Number>
CDD-1535168

> <IC50_uM>
0.33 (n=1)

$$$$

SketchEl molfile

 21 23  0  0  0  0  0  0  0  0999 V2000
    6.4288   -7.8876    0.0000 C   0  0  0  0  0  0  0  0  0  0  0  0
    7.1435   -7.4750    0.0000 C   0  0  0  0  0  0  0  0  0  0  0  0
    7.8582   -7.8876    0.0000 C   0  0  0  0  0  0  0  0  0  0  0  0
    7.1435   -6.6497    0.0000 C   0  0  0  0  0  0  0  0  0  0  0  0
    7.8557   -8.7140    0.0000 C   0  0  0  0  0  0  0  0  0  0  0  0
    8.5695   -9.1265    0.0000 N   0  0  0  0  0  0  0  0  0  0  0  0
    9.2852   -8.7138    0.0000 C   0  0  0  0  0  0  0  0  0  0  0  0
    9.2825   -7.8843    0.0000 N   0  0  0  0  0  0  0  0  0  0  0  0
    5.7146   -7.4720    0.0000 C   0  0  0  0  0  0  0  0  0  0  0  0
    5.0004   -7.8840    0.0000 C   0  0  0  0  0  0  0  0  0  0  0  0
    5.0000   -8.7101    0.0000 C   0  0  0  0  0  0  0  0  0  0  0  0
    5.7196   -9.1226    0.0000 C   0  0  0  0  0  0  0  0  0  0  0  0
    6.4309   -8.7083    0.0000 C   0  0  0  0  0  0  0  0  0  0  0  0
    7.1373   -8.2961    0.0000 O   0  0  0  0  0  0  0  0  0  0  0  0
    8.5718   -7.4743    0.0000 C   0  0  0  0  0  0  0  0  0  0  0  0
    5.7162   -6.6471    0.0000 Cl  0  0  0  0  0  0  0  0  0  0  0  0
    7.8600   -6.2380    0.0000 N   0  0  0  0  0  0  0  0  0  0  0  0
    7.8604   -5.4135    0.0000 C   0  0  0  0  0  0  0  0  0  0  0  0
    7.1451   -5.0000    0.0000 C   0  0  0  0  0  0  0  0  0  0  0  0
    6.4280   -5.4171    0.0000 C   0  0  0  0  0  0  0  0  0  0  0  0
    6.4312   -6.2403    0.0000 C   0  0  0  0  0  0  0  0  0  0  0  0
  1  2  1  0  0  0  0
  2  3  1  0  0  0  0
  2  4  1  0  0  0  0
  3  5  2  0  0  0  0
  5  6  1  0  0  0  0
  6  7  2  0  0  0  0
  7  8  1  0  0  0  0
  8 15  2  0  0  0  0
 15  3  1  0  0  0  0
  1  9  2  0  0  0  0
  9 10  1  0  0  0  0
 10 11  2  0  0  0  0
 11 12  1  0  0  0  0
 12 13  2  0  0  0  0
 13  1  1  0  0  0  0
  2 14  1  0  0  0  0
  9 16  1  0  0  0  0
  4 17  2  0  0  0  0
 17 18  1  0  0  0  0
 18 19  2  0  0  0  0
 19 20  1  0  0  0  0
 20 21  2  0  0  0  0
 21  4  1  0  0  0  0
M  END
> <Molecule Name>
DNDI1264442

> <CDD Number>
CDD-1535169

> <IC50_uM>
7.33 (n=1)

$$$$

SketchEl molfile

 22 24  0  0  0  0  0  0  0  0999 V2000
    7.1427   -7.8875    0.0000 C   0  0  0  0  0  0  0  0  0  0  0  0
    7.8575   -7.4749    0.0000 C   0  0  0  0  0  0  0  0  0  0  0  0
    8.5721   -7.8875    0.0000 C   0  0  0  0  0  0  0  0  0  0  0  0
    7.8575   -6.6496    0.0000 C   0  0  0  0  0  0  0  0  0  0  0  0
    8.5696   -8.7139    0.0000 C   0  0  0  0  0  0  0  0  0  0  0  0
    9.2834   -9.1264    0.0000 N   0  0  0  0  0  0  0  0  0  0  0  0
    9.9991   -8.7137    0.0000 C   0  0  0  0  0  0  0  0  0  0  0  0
    9.9964   -7.8842    0.0000 N   0  0  0  0  0  0  0  0  0  0  0  0
    6.4286   -7.4719    0.0000 C   0  0  0  0  0  0  0  0  0  0  0  0
    5.7143   -7.8839    0.0000 C   0  0  0  0  0  0  0  0  0  0  0  0
    5.7139   -8.7100    0.0000 C   0  0  0  0  0  0  0  0  0  0  0  0
    6.4336   -9.1225    0.0000 C   0  0  0  0  0  0  0  0  0  0  0  0
    7.1448   -8.7082    0.0000 C   0  0  0  0  0  0  0  0  0  0  0  0
    7.8513   -8.2960    0.0000 O   0  0  0  0  0  0  0  0  0  0  0  0
    9.2857   -7.4742    0.0000 C   0  0  0  0  0  0  0  0  0  0  0  0
    8.5739   -6.2380    0.0000 C   0  0  0  0  0  0  0  0  0  0  0  0
    8.5743   -5.4134    0.0000 C   0  0  0  0  0  0  0  0  0  0  0  0
    7.8590   -5.0000    0.0000 C   0  0  0  0  0  0  0  0  0  0  0  0
    7.1419   -5.4170    0.0000 C   0  0  0  0  0  0  0  0  0  0  0  0
    7.1451   -6.2402    0.0000 C   0  0  0  0  0  0  0  0  0  0  0  0
    5.0000   -9.1234    0.0000 Cl  0  0  0  0  0  0  0  0  0  0  0  0
    9.2879   -6.6513    0.0000 F   0  0  0  0  0  0  0  0  0  0  0  0
  1  2  1  0  0  0  0
  2  3  1  0  0  0  0
  2  4  1  0  0  0  0
  3  5  2  0  0  0  0
  5  6  1  0  0  0  0
  6  7  2  0  0  0  0
  7  8  1  0  0  0  0
  8 15  2  0  0  0  0
 15  3  1  0  0  0  0
  1  9  2  0  0  0  0
  9 10  1  0  0  0  0
 10 11  2  0  0  0  0
 11 12  1  0  0  0  0
 12 13  2  0  0  0  0
 13  1  1  0  0  0  0
  2 14  1  0  0  0  0
  4 16  2  0  0  0  0
 16 17  1  0  0  0  0
 17 18  2  0  0  0  0
 18 19  1  0  0  0  0
 19 20  2  0  0  0  0
 20  4  1  0  0  0  0
 11 21  1  0  0  0  0
 16 22  1  0  0  0  0
M  END
> <Molecule Name>
DNDI1264445

> <CDD Number>
CDD-1535170

> <IC50_uM>
0.14 (n=1)

$$$$

SketchEl molfile

 21 23  0  0  0  0  0  0  0  0999 V2000
    6.4288   -7.8875    0.0000 C   0  0  0  0  0  0  0  0  0  0  0  0
    7.1435   -7.4749    0.0000 C   0  0  0  0  0  0  0  0  0  0  0  0
    7.8582   -7.8875    0.0000 C   0  0  0  0  0  0  0  0  0  0  0  0
    7.1435   -6.6496    0.0000 C   0  0  0  0  0  0  0  0  0  0  0  0
    7.8557   -8.7139    0.0000 C   0  0  0  0  0  0  0  0  0  0  0  0
    8.5695   -9.1264    0.0000 N   0  0  0  0  0  0  0  0  0  0  0  0
    9.2852   -8.7137    0.0000 C   0  0  0  0  0  0  0  0  0  0  0  0
    9.2825   -7.8842    0.0000 N   0  0  0  0  0  0  0  0  0  0  0  0
    5.7146   -7.4719    0.0000 C   0  0  0  0  0  0  0  0  0  0  0  0
    5.0004   -7.8839    0.0000 C   0  0  0  0  0  0  0  0  0  0  0  0
    5.0000   -8.7100    0.0000 C   0  0  0  0  0  0  0  0  0  0  0  0
    5.7196   -9.1225    0.0000 N   0  0  0  0  0  0  0  0  0  0  0  0
    6.4309   -8.7082    0.0000 C   0  0  0  0  0  0  0  0  0  0  0  0
    7.1373   -8.2960    0.0000 O   0  0  0  0  0  0  0  0  0  0  0  0
    8.5717   -7.4742    0.0000 C   0  0  0  0  0  0  0  0  0  0  0  0
    7.8600   -6.2380    0.0000 C   0  0  0  0  0  0  0  0  0  0  0  0
    7.8604   -5.4134    0.0000 C   0  0  0  0  0  0  0  0  0  0  0  0
    7.1451   -5.0000    0.0000 C   0  0  0  0  0  0  0  0  0  0  0  0
    6.4280   -5.4170    0.0000 C   0  0  0  0  0  0  0  0  0  0  0  0
    6.4312   -6.2402    0.0000 C   0  0  0  0  0  0  0  0  0  0  0  0
    8.5740   -6.6513    0.0000 Cl  0  0  0  0  0  0  0  0  0  0  0  0
  1  2  1  0  0  0  0
  2  3  1  0  0  0  0
  2  4  1  0  0  0  0
  3  5  2  0  0  0  0
  5  6  1  0  0  0  0
  6  7  2  0  0  0  0
  7  8  1  0  0  0  0
  8 15  2  0  0  0  0
 15  3  1  0  0  0  0
  1  9  2  0  0  0  0
  9 10  1  0  0  0  0
 10 11  2  0  0  0  0
 11 12  1  0  0  0  0
 12 13  2  0  0  0  0
 13  1  1  0  0  0  0
  2 14  1  0  0  0  0
  4 16  2  0  0  0  0
 16 17  1  0  0  0  0
 17 18  2  0  0  0  0
 18 19  1  0  0  0  0
 19 20  2  0  0  0  0
 20  4  1  0  0  0  0
 16 21  1  0  0  0  0
M  END
> <Molecule Name>
DNDI1264446

> <CDD Number>
CDD-1535171

> <IC50_uM>
7.82 (n=1)

$$$$

SketchEl molfile

 22 24  0  0  0  0  0  0  0  0999 V2000
    7.1427   -7.8875    0.0000 C   0  0  0  0  0  0  0  0  0  0  0  0
    7.8575   -7.4749    0.0000 C   0  0  0  0  0  0  0  0  0  0  0  0
    8.5721   -7.8875    0.0000 C   0  0  0  0  0  0  0  0  0  0  0  0
    7.8575   -6.6496    0.0000 C   0  0  0  0  0  0  0  0  0  0  0  0
    8.5696   -8.7139    0.0000 C   0  0  0  0  0  0  0  0  0  0  0  0
    9.2834   -9.1264    0.0000 N   0  0  0  0  0  0  0  0  0  0  0  0
    9.9991   -8.7137    0.0000 C   0  0  0  0  0  0  0  0  0  0  0  0
    9.9964   -7.8842    0.0000 N   0  0  0  0  0  0  0  0  0  0  0  0
    6.4286   -7.4719    0.0000 C   0  0  0  0  0  0  0  0  0  0  0  0
    5.7143   -7.8839    0.0000 C   0  0  0  0  0  0  0  0  0  0  0  0
    5.7139   -8.7100    0.0000 C   0  0  0  0  0  0  0  0  0  0  0  0
    6.4336   -9.1225    0.0000 C   0  0  0  0  0  0  0  0  0  0  0  0
    7.1448   -8.7082    0.0000 C   0  0  0  0  0  0  0  0  0  0  0  0
    7.8513   -8.2960    0.0000 O   0  0  0  0  0  0  0  0  0  0  0  0
    9.2857   -7.4742    0.0000 C   0  0  0  0  0  0  0  0  0  0  0  0
    8.5739   -6.2380    0.0000 C   0  0  0  0  0  0  0  0  0  0  0  0
    8.5743   -5.4134    0.0000 C   0  0  0  0  0  0  0  0  0  0  0  0
    7.8590   -5.0000    0.0000 C   0  0  0  0  0  0  0  0  0  0  0  0
    7.1419   -5.4170    0.0000 C   0  0  0  0  0  0  0  0  0  0  0  0
    7.1451   -6.2402    0.0000 C   0  0  0  0  0  0  0  0  0  0  0  0
    5.0000   -9.1234    0.0000 Cl  0  0  0  0  0  0  0  0  0  0  0  0
    9.2890   -5.0013    0.0000 F   0  0  0  0  0  0  0  0  0  0  0  0
  1  2  1  0  0  0  0
  2  3  1  0  0  0  0
  2  4  1  0  0  0  0
  3  5  2  0  0  0  0
  5  6  1  0  0  0  0
  6  7  2  0  0  0  0
  7  8  1  0  0  0  0
  8 15  2  0  0  0  0
 15  3  1  0  0  0  0
  1  9  2  0  0  0  0
  9 10  1  0  0  0  0
 10 11  2  0  0  0  0
 11 12  1  0  0  0  0
 12 13  2  0  0  0  0
 13  1  1  0  0  0  0
  2 14  1  0  0  0  0
  4 16  2  0  0  0  0
 16 17  1  0  0  0  0
 17 18  2  0  0  0  0
 18 19  1  0  0  0  0
 19 20  2  0  0  0  0
 20  4  1  0  0  0  0
 11 21  1  0  0  0  0
 17 22  1  0  0  0  0
M  END
> <Molecule Name>
DNDI1264447

> <CDD Number>
CDD-1535172

> <IC50_uM>
0.84 (n=1)

$$$$

SketchEl molfile

 19 20  0  0  0  0  0  0  0  0999 V2000
    7.1429   -7.4756    0.0000 C   0  0  0  0  0  0  0  0  0  0  0  0
    7.8577   -7.0630    0.0000 C   0  0  0  0  0  0  0  0  0  0  0  0
    8.5724   -7.4756    0.0000 C   0  0  0  0  0  0  0  0  0  0  0  0
    7.8577   -6.2376    0.0000 C   0  0  0  0  0  0  0  0  0  0  0  0
    8.5699   -8.3021    0.0000 C   0  0  0  0  0  0  0  0  0  0  0  0
    9.2838   -8.7146    0.0000 N   0  0  0  0  0  0  0  0  0  0  0  0
    9.9995   -8.3019    0.0000 C   0  0  0  0  0  0  0  0  0  0  0  0
    9.9968   -7.4723    0.0000 N   0  0  0  0  0  0  0  0  0  0  0  0
    6.4287   -7.0600    0.0000 C   0  0  0  0  0  0  0  0  0  0  0  0
    5.7144   -7.4720    0.0000 C   0  0  0  0  0  0  0  0  0  0  0  0
    5.7140   -8.2982    0.0000 C   0  0  0  0  0  0  0  0  0  0  0  0
    6.4337   -8.7107    0.0000 C   0  0  0  0  0  0  0  0  0  0  0  0
    7.1450   -8.2964    0.0000 C   0  0  0  0  0  0  0  0  0  0  0  0
    7.8515   -7.8841    0.0000 O   0  0  0  0  0  0  0  0  0  0  0  0
    9.2860   -7.0623    0.0000 C   0  0  0  0  0  0  0  0  0  0  0  0
    5.0000   -8.7116    0.0000 Cl  0  0  0  0  0  0  0  0  0  0  0  0
    8.5722   -5.8251    0.0000 C   0  0  0  0  0  0  0  0  0  0  0  0
    8.5722   -5.0000    0.0000 C   0  0  0  0  0  0  0  0  0  0  0  0
    9.2868   -6.2376    0.0000 C   0  0  0  0  0  0  0  0  0  0  0  0
  1  2  1  0  0  0  0
  2  3  1  0  0  0  0
  2  4  1  0  0  0  0
  3  5  2  0  0  0  0
  5  6  1  0  0  0  0
  6  7  2  0  0  0  0
  7  8  1  0  0  0  0
  8 15  2  0  0  0  0
 15  3  1  0  0  0  0
  1  9  2  0  0  0  0
  9 10  1  0  0  0  0
 10 11  2  0  0  0  0
 11 12  1  0  0  0  0
 12 13  2  0  0  0  0
 13  1  1  0  0  0  0
  2 14  1  0  0  0  0
 11 16  1  0  0  0  0
  4 17  1  0  0  0  0
 17 18  1  0  0  0  0
 17 19  1  0  0  0  0
M  END
> <Molecule Name>
DNDI1264448

> <CDD Number>
CDD-1535173

> <IC50_uM>
1.15 (n=1)

$$$$

SketchEl molfile

 25 27  0  0  0  0  0  0  0  0999 V2000
    8.5710   -7.4734    0.0000 C   0  0  0  0  0  0  0  0  0  0  0  0
    8.5712   -6.6479    0.0000 C   0  0  0  0  0  0  0  0  0  0  0  0
    9.2858   -7.8862    0.0000 C   0  0  0  0  0  0  0  0  0  0  0  0
    7.8561   -7.8859    0.0000 C   0  0  0  0  0  0  0  0  0  0  0  0
    9.9953   -9.1227    0.0000 N   0  0  0  0  0  0  0  0  0  0  0  0
   10.7088   -7.8804    0.0000 N   0  0  0  0  0  0  0  0  0  0  0  0
   10.7112   -8.7101    0.0000 C   0  0  0  0  0  0  0  0  0  0  0  0
    9.2802   -7.0538    0.0000 O   0  0  0  0  0  0  0  0  0  0  0  0
    7.8610   -8.7066    0.0000 C   0  0  0  0  0  0  0  0  0  0  0  0
    7.1448   -7.4699    0.0000 C   0  0  0  0  0  0  0  0  0  0  0  0
    9.9943   -7.4713    0.0000 C   0  0  0  0  0  0  0  0  0  0  0  0
    9.2814   -8.7099    0.0000 C   0  0  0  0  0  0  0  0  0  0  0  0
    6.4297   -8.7081    0.0000 C   0  0  0  0  0  0  0  0  0  0  0  0
    7.1494   -9.1208    0.0000 C   0  0  0  0  0  0  0  0  0  0  0  0
    6.4303   -7.8818    0.0000 C   0  0  0  0  0  0  0  0  0  0  0  0
    5.7153   -9.1216    0.0000 C   0  0  0  0  0  0  0  0  0  0  0  0
    5.0000   -8.7096    0.0000 F   0  0  0  0  0  0  0  0  0  0  0  0
    5.7162   -9.9470    0.0000 F   0  0  0  0  0  0  0  0  0  0  0  0
    5.5008   -8.3245    0.0000 F   0  0  0  0  0  0  0  0  0  0  0  0
    9.2860   -6.2384    0.0000 C   0  0  0  0  0  0  0  0  0  0  0  0
    9.2866   -5.4137    0.0000 C   0  0  0  0  0  0  0  0  0  0  0  0
    8.5713   -5.0000    0.0000 C   0  0  0  0  0  0  0  0  0  0  0  0
    7.8540   -5.4170    0.0000 C   0  0  0  0  0  0  0  0  0  0  0  0
    7.8569   -6.2403    0.0000 C   0  0  0  0  0  0  0  0  0  0  0  0
    7.1439   -6.6560    0.0000 Cl  0  0  0  0  0  0  0  0  0  0  0  0
 15 13  2  0  0  0  0
  1  4  1  0  0  0  0
 13 14  1  0  0  0  0
 14  9  2  0  0  0  0
  9  4  1  0  0  0  0
 13 16  1  0  0  0  0
  1  3  1  0  0  0  0
  1  8  1  0  0  0  0
  3 12  2  0  0  0  0
 16 17  1  0  0  0  0
 12  5  1  0  0  0  0
 16 18  1  0  0  0  0
  5  7  2  0  0  0  0
 16 19  1  0  0  0  0
  7  6  1  0  0  0  0
  2 20  2  0  0  0  0
  6 11  2  0  0  0  0
 20 21  1  0  0  0  0
 11  3  1  0  0  0  0
 21 22  2  0  0  0  0
  4 10  2  0  0  0  0
 22 23  1  0  0  0  0
  2  1  1  0  0  0  0
 23 24  2  0  0  0  0
 24  2  1  0  0  0  0
 10 15  1  0  0  0  0
 24 25  1  0  0  0  0
M  END
> <Molecule Name>
DNDI1267118

> <CDD Number>
CDD-1535174

> <IC50_uM>
0.25 (n=1)

$$$$

SketchEl molfile

 20 22  0  0  0  0  0  0  0  0999 V2000
    7.8557   -7.0956    0.0000 C   0  0  0  0  0  0  0  0  0  0  0  0
    7.8559   -6.2702    0.0000 C   0  0  0  0  0  0  0  0  0  0  0  0
    8.5705   -7.5085    0.0000 C   0  0  0  0  0  0  0  0  0  0  0  0
    7.1408   -7.5081    0.0000 C   0  0  0  0  0  0  0  0  0  0  0  0
    9.2800   -8.7449    0.0000 N   0  0  0  0  0  0  0  0  0  0  0  0
    9.9934   -7.5026    0.0000 N   0  0  0  0  0  0  0  0  0  0  0  0
    9.9958   -8.3323    0.0000 C   0  0  0  0  0  0  0  0  0  0  0  0
    8.5649   -6.6760    0.0000 O   0  0  0  0  0  0  0  0  0  0  0  0
    7.1457   -8.3288    0.0000 C   0  0  0  0  0  0  0  0  0  0  0  0
    6.4295   -7.0921    0.0000 C   0  0  0  0  0  0  0  0  0  0  0  0
    9.2790   -7.0935    0.0000 C   0  0  0  0  0  0  0  0  0  0  0  0
    8.5661   -8.3321    0.0000 C   0  0  0  0  0  0  0  0  0  0  0  0
    5.7144   -8.3303    0.0000 C   0  0  0  0  0  0  0  0  0  0  0  0
    6.4342   -8.7430    0.0000 C   0  0  0  0  0  0  0  0  0  0  0  0
    5.7150   -7.5040    0.0000 C   0  0  0  0  0  0  0  0  0  0  0  0
    5.0000   -8.7438    0.0000 Cl  0  0  0  0  0  0  0  0  0  0  0  0
    8.5186   -5.7853    0.0000 S   0  0  0  0  0  0  0  0  0  0  0  0
    8.2637   -5.0002    0.0000 C   0  0  0  0  0  0  0  0  0  0  0  0
    7.4382   -5.0000    0.0000 C   0  0  0  0  0  0  0  0  0  0  0  0
    7.1831   -5.7850    0.0000 C   0  0  0  0  0  0  0  0  0  0  0  0
 14  9  2  0  0  0  0
  9  4  1  0  0  0  0
 13 16  1  0  0  0  0
  1  3  1  0  0  0  0
  1  8  1  0  0  0  0
  3 12  2  0  0  0  0
 12  5  1  0  0  0  0
  5  7  2  0  0  0  0
  7  6  1  0  0  0  0
  6 11  2  0  0  0  0
 11  3  1  0  0  0  0
  4 10  2  0  0  0  0
  2  1  1  0  0  0  0
 10 15  1  0  0  0  0
  2 17  1  0  0  0  0
 15 13  2  0  0  0  0
  1  4  1  0  0  0  0
 13 14  1  0  0  0  0
 17 18  1  0  0  0  0
 18 19  2  0  0  0  0
 19 20  1  0  0  0  0
 20  2  2  0  0  0  0
M  END
> <Molecule Name>
DNDI1267119

> <CDD Number>
CDD-1535175

> <IC50_uM>
0.07 (n=1)

$$$$

SketchEl molfile

 22 24  0  0  0  0  0  0  0  0999 V2000
    7.8554   -8.2990    0.0000 C   0  0  0  0  0  0  0  0  0  0  0  0
    7.8556   -7.4735    0.0000 C   0  0  0  0  0  0  0  0  0  0  0  0
    8.5702   -8.7119    0.0000 C   0  0  0  0  0  0  0  0  0  0  0  0
    7.1404   -8.7115    0.0000 C   0  0  0  0  0  0  0  0  0  0  0  0
    9.2798   -9.9484    0.0000 N   0  0  0  0  0  0  0  0  0  0  0  0
    9.9933   -8.7060    0.0000 N   0  0  0  0  0  0  0  0  0  0  0  0
    9.9957   -9.5358    0.0000 C   0  0  0  0  0  0  0  0  0  0  0  0
    8.5646   -7.8794    0.0000 O   0  0  0  0  0  0  0  0  0  0  0  0
    7.1453   -9.5323    0.0000 C   0  0  0  0  0  0  0  0  0  0  0  0
    6.4291   -8.2955    0.0000 C   0  0  0  0  0  0  0  0  0  0  0  0
    9.2788   -8.2969    0.0000 C   0  0  0  0  0  0  0  0  0  0  0  0
    8.5658   -9.5356    0.0000 C   0  0  0  0  0  0  0  0  0  0  0  0
    5.7139   -9.5338    0.0000 C   0  0  0  0  0  0  0  0  0  0  0  0
    6.4337   -9.9465    0.0000 C   0  0  0  0  0  0  0  0  0  0  0  0
    5.7146   -8.7074    0.0000 C   0  0  0  0  0  0  0  0  0  0  0  0
    8.5704   -7.0639    0.0000 C   0  0  0  0  0  0  0  0  0  0  0  0
    8.5710   -6.2392    0.0000 C   0  0  0  0  0  0  0  0  0  0  0  0
    7.8557   -5.8254    0.0000 C   0  0  0  0  0  0  0  0  0  0  0  0
    7.1383   -6.2424    0.0000 C   0  0  0  0  0  0  0  0  0  0  0  0
    7.1413   -7.0658    0.0000 C   0  0  0  0  0  0  0  0  0  0  0  0
    7.8548   -5.0000    0.0000 Cl  0  0  0  0  0  0  0  0  0  0  0  0
    5.0000   -8.2942    0.0000 Cl  0  0  0  0  0  0  0  0  0  0  0  0
  5  7  2  0  0  0  0
  7  6  1  0  0  0  0
  6 11  2  0  0  0  0
 11  3  1  0  0  0  0
  4 10  2  0  0  0  0
  2  1  1  0  0  0  0
 10 15  1  0  0  0  0
 15 13  2  0  0  0  0
  1  4  1  0  0  0  0
 13 14  1  0  0  0  0
  2 16  2  0  0  0  0
 14  9  2  0  0  0  0
 16 17  1  0  0  0  0
  9  4  1  0  0  0  0
 17 18  2  0  0  0  0
  1  3  1  0  0  0  0
 18 19  1  0  0  0  0
  1  8  1  0  0  0  0
 19 20  2  0  0  0  0
 20  2  1  0  0  0  0
  3 12  2  0  0  0  0
 18 21  1  0  0  0  0
 12  5  1  0  0  0  0
 15 22  1  0  0  0  0
M  END
> <Molecule Name>
DNDI1267120

> <CDD Number>
CDD-1535176

> <IC50_uM>
0.513 (n=1)

$$$$

SketchEl molfile

 17 18  0  0  0  0  0  0  0  0999 V2000
    5.0012   -6.9061    0.0000 C   0  0  0  0  0  0  0  0  0  0  0  0
    5.0000   -7.7332    0.0000 C   0  0  0  0  0  0  0  0  0  0  0  0
    5.7146   -8.1460    0.0000 C   0  0  0  0  0  0  0  0  0  0  0  0
    6.4309   -7.7328    0.0000 C   0  0  0  0  0  0  0  0  0  0  0  0
    6.4280   -6.9025    0.0000 C   0  0  0  0  0  0  0  0  0  0  0  0
    5.7128   -6.4934    0.0000 C   0  0  0  0  0  0  0  0  0  0  0  0
    5.7103   -5.6687    0.0000 Cl  0  0  0  0  0  0  0  0  0  0  0  0
    7.1407   -6.4874    0.0000 C   0  0  0  0  0  0  0  0  0  0  0  0
    7.8566   -6.8971    0.0000 C   0  0  0  0  0  0  0  0  0  0  0  0
    7.1376   -5.6626    0.0000 N   0  0  0  0  0  0  0  0  0  0  0  0
    7.8563   -7.7195    0.0000 C   0  0  0  0  0  0  0  0  0  0  0  0
    8.5713   -8.1291    0.0000 C   0  0  0  0  0  0  0  0  0  0  0  0
    9.2850   -7.7140    0.0000 C   0  0  0  0  0  0  0  0  0  0  0  0
    9.2792   -6.8850    0.0000 C   0  0  0  0  0  0  0  0  0  0  0  0
    8.5637   -6.4791    0.0000 C   0  0  0  0  0  0  0  0  0  0  0  0
   10.0014   -8.1227    0.0000 Cl  0  0  0  0  0  0  0  0  0  0  0  0
    7.8503   -5.2475    0.0000 O   0  0  0  0  0  0  0  0  0  0  0  0
  8  9  1  0  0  0  0
  4  5  1  0  0  0  0
  8 10  2  0  0  0  0
  2  3  1  0  0  0  0
  9 11  2  0  0  0  0
  5  6  2  0  0  0  0
 11 12  1  0  0  0  0
  6  1  1  0  0  0  0
 12 13  2  0  0  0  0
  1  2  2  0  0  0  0
 13 14  1  0  0  0  0
  6  7  1  0  0  0  0
 14 15  2  0  0  0  0
 15  9  1  0  0  0  0
  3  4  2  0  0  0  0
 13 16  1  0  0  0  0
  5  8  1  0  0  0  0
 10 17  1  0  0  0  0
M  END
> <Molecule Name>
DNDI1267125

> <CDD Number>
CDD-1535177

> <IC50_uM>
46.35 (n=1)

$$$$

SketchEl molfile

 22 24  0  0  0  0  0  0  0  0999 V2000
    7.8559   -8.2990    0.0000 C   0  0  0  0  0  0  0  0  0  0  0  0
    7.8561   -7.4735    0.0000 C   0  0  0  0  0  0  0  0  0  0  0  0
    8.5707   -8.7119    0.0000 C   0  0  0  0  0  0  0  0  0  0  0  0
    7.1409   -8.7115    0.0000 C   0  0  0  0  0  0  0  0  0  0  0  0
    9.2803   -9.9484    0.0000 N   0  0  0  0  0  0  0  0  0  0  0  0
    9.9938   -8.7060    0.0000 C   0  0  0  0  0  0  0  0  0  0  0  0
    9.9962   -9.5358    0.0000 C   0  0  0  0  0  0  0  0  0  0  0  0
    8.5651   -7.8794    0.0000 O   0  0  0  0  0  0  0  0  0  0  0  0
    7.1458   -9.5323    0.0000 C   0  0  0  0  0  0  0  0  0  0  0  0
    6.4296   -8.2955    0.0000 C   0  0  0  0  0  0  0  0  0  0  0  0
    9.2793   -8.2969    0.0000 C   0  0  0  0  0  0  0  0  0  0  0  0
    8.5663   -9.5356    0.0000 C   0  0  0  0  0  0  0  0  0  0  0  0
    5.7144   -9.5338    0.0000 C   0  0  0  0  0  0  0  0  0  0  0  0
    6.4343   -9.9465    0.0000 C   0  0  0  0  0  0  0  0  0  0  0  0
    5.7151   -8.7074    0.0000 C   0  0  0  0  0  0  0  0  0  0  0  0
    8.5709   -7.0639    0.0000 C   0  0  0  0  0  0  0  0  0  0  0  0
    8.5715   -6.2392    0.0000 C   0  0  0  0  0  0  0  0  0  0  0  0
    7.8562   -5.8254    0.0000 C   0  0  0  0  0  0  0  0  0  0  0  0
    7.1388   -6.2424    0.0000 C   0  0  0  0  0  0  0  0  0  0  0  0
    7.1418   -7.0658    0.0000 C   0  0  0  0  0  0  0  0  0  0  0  0
    7.8553   -5.0000    0.0000 Cl  0  0  0  0  0  0  0  0  0  0  0  0
    5.0000   -9.9473    0.0000 Cl  0  0  0  0  0  0  0  0  0  0  0  0
  5  7  2  0  0  0  0
  7  6  1  0  0  0  0
  6 11  2  0  0  0  0
 11  3  1  0  0  0  0
  4 10  2  0  0  0  0
  2  1  1  0  0  0  0
 10 15  1  0  0  0  0
 15 13  2  0  0  0  0
  1  4  1  0  0  0  0
 13 14  1  0  0  0  0
  2 16  2  0  0  0  0
 14  9  2  0  0  0  0
 16 17  1  0  0  0  0
  9  4  1  0  0  0  0
 17 18  2  0  0  0  0
  1  3  1  0  0  0  0
 18 19  1  0  0  0  0
  1  8  1  0  0  0  0
 19 20  2  0  0  0  0
 20  2  1  0  0  0  0
  3 12  2  0  0  0  0
 18 21  1  0  0  0  0
 12  5  1  0  0  0  0
 13 22  1  0  0  0  0
M  END
> <Molecule Name>
DNDI1267127

> <CDD Number>
CDD-1535145

> <IC50_uM>
0.09 (n=1)

$$$$

SketchEl molfile

 21 23  0  0  0  0  0  0  0  0999 V2000
    7.1415   -8.2991    0.0000 C   0  0  0  0  0  0  0  0  0  0  0  0
    7.1417   -7.4736    0.0000 C   0  0  0  0  0  0  0  0  0  0  0  0
    7.8563   -8.7121    0.0000 C   0  0  0  0  0  0  0  0  0  0  0  0
    6.4265   -8.7117    0.0000 C   0  0  0  0  0  0  0  0  0  0  0  0
    8.5659   -9.9486    0.0000 N   0  0  0  0  0  0  0  0  0  0  0  0
    9.2795   -8.7062    0.0000 N   0  0  0  0  0  0  0  0  0  0  0  0
    9.2819   -9.5360    0.0000 C   0  0  0  0  0  0  0  0  0  0  0  0
    7.8508   -7.8795    0.0000 O   0  0  0  0  0  0  0  0  0  0  0  0
    6.4314   -9.5325    0.0000 C   0  0  0  0  0  0  0  0  0  0  0  0
    5.7152   -8.2957    0.0000 C   0  0  0  0  0  0  0  0  0  0  0  0
    8.5649   -8.2971    0.0000 C   0  0  0  0  0  0  0  0  0  0  0  0
    7.8520   -9.5358    0.0000 C   0  0  0  0  0  0  0  0  0  0  0  0
    5.0000   -9.5340    0.0000 C   0  0  0  0  0  0  0  0  0  0  0  0
    5.7198   -9.9467    0.0000 C   0  0  0  0  0  0  0  0  0  0  0  0
    5.0007   -8.7076    0.0000 N   0  0  0  0  0  0  0  0  0  0  0  0
    7.8566   -7.0640    0.0000 C   0  0  0  0  0  0  0  0  0  0  0  0
    7.8571   -6.2393    0.0000 C   0  0  0  0  0  0  0  0  0  0  0  0
    7.1418   -5.8255    0.0000 C   0  0  0  0  0  0  0  0  0  0  0  0
    6.4244   -6.2426    0.0000 C   0  0  0  0  0  0  0  0  0  0  0  0
    6.4274   -7.0659    0.0000 C   0  0  0  0  0  0  0  0  0  0  0  0
    7.1409   -5.0000    0.0000 Cl  0  0  0  0  0  0  0  0  0  0  0  0
  5  7  2  0  0  0  0
  7  6  1  0  0  0  0
  6 11  2  0  0  0  0
 11  3  1  0  0  0  0
  4 10  2  0  0  0  0
  2  1  1  0  0  0  0
 10 15  1  0  0  0  0
 15 13  2  0  0  0  0
  1  4  1  0  0  0  0
 13 14  1  0  0  0  0
  2 16  2  0  0  0  0
 14  9  2  0  0  0  0
 16 17  1  0  0  0  0
  9  4  1  0  0  0  0
 17 18  2  0  0  0  0
  1  3  1  0  0  0  0
 18 19  1  0  0  0  0
  1  8  1  0  0  0  0
 19 20  2  0  0  0  0
 20  2  1  0  0  0  0
  3 12  2  0  0  0  0
 18 21  1  0  0  0  0
 12  5  1  0  0  0  0
M  END
> <Molecule Name>
DNDI1268111

> <CDD Number>
CDD-1535178

> <IC50_uM>
1.53 (n=1)

$$$$

SketchEl molfile

 23 25  0  0  0  0  0  0  0  0999 V2000
    7.1414   -8.2989    0.0000 C   0  0  0  0  0  0  0  0  0  0  0  0
    7.1416   -7.4734    0.0000 C   0  0  0  0  0  0  0  0  0  0  0  0
    7.8562   -8.7118    0.0000 C   0  0  0  0  0  0  0  0  0  0  0  0
    6.4264   -8.7115    0.0000 C   0  0  0  0  0  0  0  0  0  0  0  0
    8.5657   -9.9483    0.0000 C   0  0  0  0  0  0  0  0  0  0  0  0
    9.2793   -8.7060    0.0000 C   0  0  0  0  0  0  0  0  0  0  0  0
    9.2817   -9.5357    0.0000 C   0  0  0  0  0  0  0  0  0  0  0  0
    7.8506   -7.8793    0.0000 O   0  0  0  0  0  0  0  0  0  0  0  0
    6.4313   -9.5322    0.0000 C   0  0  0  0  0  0  0  0  0  0  0  0
    5.7151   -8.2955    0.0000 C   0  0  0  0  0  0  0  0  0  0  0  0
    8.5647   -8.2969    0.0000 C   0  0  0  0  0  0  0  0  0  0  0  0
    7.8518   -9.5355    0.0000 C   0  0  0  0  0  0  0  0  0  0  0  0
    5.0000   -9.5337    0.0000 C   0  0  0  0  0  0  0  0  0  0  0  0
    5.7198   -9.9464    0.0000 C   0  0  0  0  0  0  0  0  0  0  0  0
    5.0006   -8.7073    0.0000 N   0  0  0  0  0  0  0  0  0  0  0  0
    7.8564   -7.0639    0.0000 C   0  0  0  0  0  0  0  0  0  0  0  0
    7.8570   -6.2392    0.0000 C   0  0  0  0  0  0  0  0  0  0  0  0
    7.1417   -5.8254    0.0000 C   0  0  0  0  0  0  0  0  0  0  0  0
    6.4243   -6.2424    0.0000 C   0  0  0  0  0  0  0  0  0  0  0  0
    6.4273   -7.0658    0.0000 C   0  0  0  0  0  0  0  0  0  0  0  0
    7.1408   -5.0000    0.0000 Cl  0  0  0  0  0  0  0  0  0  0  0  0
    8.6761   -7.8793    0.0000 C   0  0  0  0  0  0  0  0  0  0  0  0
    7.1357   -9.9461    0.0000 Cl  0  0  0  0  0  0  0  0  0  0  0  0
  7  6  1  0  0  0  0
  6 11  2  0  0  0  0
 11  3  1  0  0  0  0
  4 10  2  0  0  0  0
  2  1  1  0  0  0  0
 10 15  1  0  0  0  0
 15 13  2  0  0  0  0
  1  4  1  0  0  0  0
 13 14  1  0  0  0  0
  2 16  2  0  0  0  0
 14  9  2  0  0  0  0
 16 17  1  0  0  0  0
  9  4  1  0  0  0  0
 17 18  2  0  0  0  0
  1  3  1  0  0  0  0
 18 19  1  0  0  0  0
  1  8  1  0  0  0  0
 19 20  2  0  0  0  0
 20  2  1  0  0  0  0
  3 12  2  0  0  0  0
 18 21  1  0  0  0  0
 12  5  1  0  0  0  0
  8 22  1  0  0  0  0
  5  7  2  0  0  0  0
 12 23  1  0  0  0  0
M  END
> <Molecule Name>
DNDI1268112

> <CDD Number>
CDD-1535179

> <IC50_uM>
0.09 (n=1)

$$$$

SketchEl molfile

 18 19  0  0  0  0  0  0  0  0999 V2000
    6.0458   -7.4834    0.0000 C   0  0  0  0  0  0  0  0  0  0  0  0
    6.0446   -8.3105    0.0000 C   0  0  0  0  0  0  0  0  0  0  0  0
    6.7592   -8.7233    0.0000 C   0  0  0  0  0  0  0  0  0  0  0  0
    7.4755   -8.3101    0.0000 C   0  0  0  0  0  0  0  0  0  0  0  0
    7.4726   -7.4797    0.0000 C   0  0  0  0  0  0  0  0  0  0  0  0
    6.7574   -7.0707    0.0000 C   0  0  0  0  0  0  0  0  0  0  0  0
    5.3300   -8.7224    0.0000 Cl  0  0  0  0  0  0  0  0  0  0  0  0
    8.1854   -7.0647    0.0000 C   0  0  0  0  0  0  0  0  0  0  0  0
    8.9012   -7.4744    0.0000 C   0  0  0  0  0  0  0  0  0  0  0  0
    8.1823   -6.2399    0.0000 N   0  0  0  0  0  0  0  0  0  0  0  0
    8.9009   -8.2968    0.0000 C   0  0  0  0  0  0  0  0  0  0  0  0
    9.6159   -8.7064    0.0000 C   0  0  0  0  0  0  0  0  0  0  0  0
   10.3297   -8.2913    0.0000 C   0  0  0  0  0  0  0  0  0  0  0  0
   10.3239   -7.4622    0.0000 C   0  0  0  0  0  0  0  0  0  0  0  0
    9.6083   -7.0564    0.0000 C   0  0  0  0  0  0  0  0  0  0  0  0
    8.8950   -5.8248    0.0000 O   0  0  0  0  0  0  0  0  0  0  0  0
    8.8919   -5.0000    0.0000 C   0  0  0  0  0  0  0  0  0  0  0  0
   11.0460   -8.7000    0.0000 Cl  0  0  0  0  0  0  0  0  0  0  0  0
  8  9  1  0  0  0  0
  4  5  1  0  0  0  0
  8 10  2  0  0  0  0
  2  3  1  0  0  0  0
  9 11  2  0  0  0  0
  5  6  2  0  0  0  0
 11 12  1  0  0  0  0
  6  1  1  0  0  0  0
 12 13  2  0  0  0  0
  1  2  2  0  0  0  0
 13 14  1  0  0  0  0
  2  7  1  0  0  0  0
 14 15  2  0  0  0  0
 15  9  1  0  0  0  0
  3  4  2  0  0  0  0
 10 16  1  0  0  0  0
  5  8  1  0  0  0  0
 16 17  1  0  0  0  0
 13 18  1  0  0  0  0
M  END
> <Molecule Name>
DNDI1268115

> <CDD Number>
CDD-1535180

> <IC50_uM>
> 10.0 (n=1)

$$$$

SketchEl molfile

 16 17  0  0  0  0  0  0  0  0999 V2000
    5.0012   -6.2434    0.0000 C   0  0  0  0  0  0  0  0  0  0  0  0
    5.0000   -7.0705    0.0000 C   0  0  0  0  0  0  0  0  0  0  0  0
    5.7146   -7.4833    0.0000 C   0  0  0  0  0  0  0  0  0  0  0  0
    6.4308   -7.0701    0.0000 C   0  0  0  0  0  0  0  0  0  0  0  0
    6.4280   -6.2398    0.0000 C   0  0  0  0  0  0  0  0  0  0  0  0
    5.7128   -5.8308    0.0000 C   0  0  0  0  0  0  0  0  0  0  0  0
    7.1407   -5.8247    0.0000 C   0  0  0  0  0  0  0  0  0  0  0  0
    7.8565   -6.2344    0.0000 C   0  0  0  0  0  0  0  0  0  0  0  0
    7.1376   -5.0000    0.0000 O   0  0  0  0  0  0  0  0  0  0  0  0
    7.8562   -7.0568    0.0000 C   0  0  0  0  0  0  0  0  0  0  0  0
    8.5712   -7.4664    0.0000 C   0  0  0  0  0  0  0  0  0  0  0  0
    9.2849   -7.0513    0.0000 C   0  0  0  0  0  0  0  0  0  0  0  0
    9.2791   -6.2223    0.0000 C   0  0  0  0  0  0  0  0  0  0  0  0
    8.5636   -5.8164    0.0000 C   0  0  0  0  0  0  0  0  0  0  0  0
   10.0013   -7.4600    0.0000 Cl  0  0  0  0  0  0  0  0  0  0  0  0
    5.7103   -5.0060    0.0000 Cl  0  0  0  0  0  0  0  0  0  0  0  0
  7  8  1  0  0  0  0
  4  5  1  0  0  0  0
  7  9  2  0  0  0  0
  2  3  1  0  0  0  0
  8 10  2  0  0  0  0
  5  6  2  0  0  0  0
 10 11  1  0  0  0  0
  6  1  1  0  0  0  0
 11 12  2  0  0  0  0
  1  2  2  0  0  0  0
 12 13  1  0  0  0  0
 13 14  2  0  0  0  0
 14  8  1  0  0  0  0
  3  4  2  0  0  0  0
  5  7  1  0  0  0  0
 12 15  1  0  0  0  0
  6 16  1  0  0  0  0
M  END
> <Molecule Name>
DNDI1268116

> <CDD Number>
CDD-3320

> <IC50_uM>
> 10.0 (n=1)

$$$$

SketchEl molfile

 16 17  0  0  0  0  0  0  0  0999 V2000
    5.7157   -6.2434    0.0000 C   0  0  0  0  0  0  0  0  0  0  0  0
    5.7146   -7.0705    0.0000 C   0  0  0  0  0  0  0  0  0  0  0  0
    6.4292   -7.4833    0.0000 C   0  0  0  0  0  0  0  0  0  0  0  0
    7.1454   -7.0701    0.0000 C   0  0  0  0  0  0  0  0  0  0  0  0
    7.1426   -6.2398    0.0000 C   0  0  0  0  0  0  0  0  0  0  0  0
    6.4274   -5.8308    0.0000 C   0  0  0  0  0  0  0  0  0  0  0  0
    7.8553   -5.8247    0.0000 C   0  0  0  0  0  0  0  0  0  0  0  0
    8.5711   -6.2344    0.0000 C   0  0  0  0  0  0  0  0  0  0  0  0
    7.8522   -5.0000    0.0000 O   0  0  0  0  0  0  0  0  0  0  0  0
    8.5708   -7.0568    0.0000 C   0  0  0  0  0  0  0  0  0  0  0  0
    9.2858   -7.4664    0.0000 C   0  0  0  0  0  0  0  0  0  0  0  0
    9.9995   -7.0513    0.0000 C   0  0  0  0  0  0  0  0  0  0  0  0
    9.9937   -6.2223    0.0000 C   0  0  0  0  0  0  0  0  0  0  0  0
    9.2782   -5.8164    0.0000 C   0  0  0  0  0  0  0  0  0  0  0  0
   10.7159   -7.4600    0.0000 F   0  0  0  0  0  0  0  0  0  0  0  0
    5.0000   -7.4824    0.0000 Cl  0  0  0  0  0  0  0  0  0  0  0  0
  7  8  1  0  0  0  0
  4  5  1  0  0  0  0
  7  9  2  0  0  0  0
  2  3  1  0  0  0  0
  8 10  2  0  0  0  0
  5  6  2  0  0  0  0
 10 11  1  0  0  0  0
  6  1  1  0  0  0  0
 11 12  2  0  0  0  0
  1  2  2  0  0  0  0
 12 13  1  0  0  0  0
 13 14  2  0  0  0  0
 14  8  1  0  0  0  0
  3  4  2  0  0  0  0
  5  7  1  0  0  0  0
 12 15  1  0  0  0  0
  2 16  1  0  0  0  0
M  END
> <Molecule Name>
DNDI1268117

> <CDD Number>
CDD-1535181

> <IC50_uM>
> 10.0 (n=1)

$$$$

SketchEl molfile

 21 23  0  0  0  0  0  0  0  0999 V2000
    7.1414   -8.2988    0.0000 C   0  0  0  0  0  0  0  0  0  0  0  0
    7.1416   -7.4734    0.0000 C   0  0  0  0  0  0  0  0  0  0  0  0
    7.8561   -8.7117    0.0000 C   0  0  0  0  0  0  0  0  0  0  0  0
    6.4264   -8.7114    0.0000 C   0  0  0  0  0  0  0  0  0  0  0  0
    8.5657   -9.9482    0.0000 C   0  0  0  0  0  0  0  0  0  0  0  0
    9.2791   -8.7059    0.0000 C   0  0  0  0  0  0  0  0  0  0  0  0
    9.2816   -9.5356    0.0000 C   0  0  0  0  0  0  0  0  0  0  0  0
    6.4313   -9.5321    0.0000 C   0  0  0  0  0  0  0  0  0  0  0  0
    5.7151   -8.2954    0.0000 C   0  0  0  0  0  0  0  0  0  0  0  0
    8.5646   -8.2968    0.0000 C   0  0  0  0  0  0  0  0  0  0  0  0
    7.8517   -9.5354    0.0000 C   0  0  0  0  0  0  0  0  0  0  0  0
    5.0000   -9.5336    0.0000 C   0  0  0  0  0  0  0  0  0  0  0  0
    5.7198   -9.9463    0.0000 C   0  0  0  0  0  0  0  0  0  0  0  0
    5.0007   -8.7073    0.0000 N   0  0  0  0  0  0  0  0  0  0  0  0
    7.8564   -7.0638    0.0000 C   0  0  0  0  0  0  0  0  0  0  0  0
    7.8569   -6.2392    0.0000 C   0  0  0  0  0  0  0  0  0  0  0  0
    7.1416   -5.8254    0.0000 C   0  0  0  0  0  0  0  0  0  0  0  0
    6.4243   -6.2424    0.0000 C   0  0  0  0  0  0  0  0  0  0  0  0
    6.4273   -7.0657    0.0000 C   0  0  0  0  0  0  0  0  0  0  0  0
    7.1407   -5.0000    0.0000 Cl  0  0  0  0  0  0  0  0  0  0  0  0
    9.9969   -9.9475    0.0000 Cl  0  0  0  0  0  0  0  0  0  0  0  0
  7  6  1  0  0  0  0
  6 10  2  0  0  0  0
 10  3  1  0  0  0  0
  4  9  2  0  0  0  0
  2  1  1  0  0  0  0
  9 14  1  0  0  0  0
 14 12  2  0  0  0  0
  1  4  1  0  0  0  0
 12 13  1  0  0  0  0
  2 15  2  0  0  0  0
 13  8  2  0  0  0  0
 15 16  1  0  0  0  0
  8  4  1  0  0  0  0
 16 17  2  0  0  0  0
  1  3  1  0  0  0  0
 17 18  1  0  0  0  0
 18 19  2  0  0  0  0
 19  2  1  0  0  0  0
  3 11  2  0  0  0  0
 17 20  1  0  0  0  0
 11  5  1  0  0  0  0
  5  7  2  0  0  0  0
  7 21  1  0  0  0  0
M  END
> <Molecule Name>
DNDI1268118

> <CDD Number>
CDD-1535182

> <IC50_uM>
0.08 (n=1)

$$$$

SketchEl molfile

 22 24  0  0  0  0  0  0  0  0999 V2000
    7.1449   -7.4774    0.0000 C   0  0  0  0  0  0  0  0  0  0  0  0
    7.1451   -6.6506    0.0000 C   0  0  0  0  0  0  0  0  0  0  0  0
    7.8608   -7.8910    0.0000 C   0  0  0  0  0  0  0  0  0  0  0  0
    6.4288   -7.8907    0.0000 C   0  0  0  0  0  0  0  0  0  0  0  0
    8.5715   -9.1295    0.0000 C   0  0  0  0  0  0  0  0  0  0  0  0
    9.2862   -7.8851    0.0000 C   0  0  0  0  0  0  0  0  0  0  0  0
    9.2886   -8.7162    0.0000 C   0  0  0  0  0  0  0  0  0  0  0  0
    6.4337   -8.7127    0.0000 C   0  0  0  0  0  0  0  0  0  0  0  0
    5.7163   -7.4740    0.0000 C   0  0  0  0  0  0  0  0  0  0  0  0
    8.5705   -7.4754    0.0000 C   0  0  0  0  0  0  0  0  0  0  0  0
    7.8564   -8.7160    0.0000 C   0  0  0  0  0  0  0  0  0  0  0  0
    5.0000   -8.7142    0.0000 C   0  0  0  0  0  0  0  0  0  0  0  0
    5.7210   -9.1276    0.0000 C   0  0  0  0  0  0  0  0  0  0  0  0
    5.0007   -7.8865    0.0000 N   0  0  0  0  0  0  0  0  0  0  0  0
    7.8611   -6.2404    0.0000 C   0  0  0  0  0  0  0  0  0  0  0  0
    7.8616   -5.4144    0.0000 C   0  0  0  0  0  0  0  0  0  0  0  0
    7.1452   -5.0000    0.0000 C   0  0  0  0  0  0  0  0  0  0  0  0
    6.4266   -5.4176    0.0000 C   0  0  0  0  0  0  0  0  0  0  0  0
    6.4296   -6.2423    0.0000 C   0  0  0  0  0  0  0  0  0  0  0  0
   10.0051   -9.1288    0.0000 Cl  0  0  0  0  0  0  0  0  0  0  0  0
    7.8180   -7.0568    0.0000 F   0  0  0  0  0  0  0  0  0  0  0  0
    5.7154   -6.6588    0.0000 Cl  0  0  0  0  0  0  0  0  0  0  0  0
  6 10  2  0  0  0  0
 10  3  1  0  0  0  0
  4  9  2  0  0  0  0
  2  1  1  0  0  0  0
  9 14  1  0  0  0  0
 14 12  2  0  0  0  0
  1  4  1  0  0  0  0
 12 13  1  0  0  0  0
  2 15  2  0  0  0  0
 13  8  2  0  0  0  0
 15 16  1  0  0  0  0
  8  4  1  0  0  0  0
 16 17  2  0  0  0  0
  1  3  1  0  0  0  0
 17 18  1  0  0  0  0
 18 19  2  0  0  0  0
 19  2  1  0  0  0  0
  3 11  2  0  0  0  0
 11  5  1  0  0  0  0
  5  7  2  0  0  0  0
  7 20  1  0  0  0  0
  1 21  1  0  0  0  0
  7  6  1  0  0  0  0
 19 22  1  0  0  0  0
M  END
> <Molecule Name>
DNDI1268121

> <CDD Number>
CDD-1535183

> <IC50_uM>
0.1703 (n=1)

$$$$

SketchEl molfile

 23 25  0  0  0  0  0  0  0  0999 V2000
    7.1420   -6.6482    0.0000 C   0  0  0  0  0  0  0  0  0  0  0  0
    7.8567   -7.8868    0.0000 C   0  0  0  0  0  0  0  0  0  0  0  0
    6.4267   -7.8864    0.0000 C   0  0  0  0  0  0  0  0  0  0  0  0
    8.5664   -9.1235    0.0000 C   0  0  0  0  0  0  0  0  0  0  0  0
    9.2800   -7.8809    0.0000 C   0  0  0  0  0  0  0  0  0  0  0  0
    9.2824   -8.7108    0.0000 C   0  0  0  0  0  0  0  0  0  0  0  0
    6.4316   -8.7073    0.0000 C   0  0  0  0  0  0  0  0  0  0  0  0
    5.7153   -7.4704    0.0000 C   0  0  0  0  0  0  0  0  0  0  0  0
    7.8524   -8.7106    0.0000 C   0  0  0  0  0  0  0  0  0  0  0  0
    5.0000   -8.7088    0.0000 C   0  0  0  0  0  0  0  0  0  0  0  0
    5.7199   -9.1216    0.0000 C   0  0  0  0  0  0  0  0  0  0  0  0
    5.0007   -7.8823    0.0000 N   0  0  0  0  0  0  0  0  0  0  0  0
    7.8575   -5.4138    0.0000 C   0  0  0  0  0  0  0  0  0  0  0  0
    7.1421   -5.0000    0.0000 C   0  0  0  0  0  0  0  0  0  0  0  0
    6.4246   -5.4169    0.0000 C   0  0  0  0  0  0  0  0  0  0  0  0
    6.4276   -6.2404    0.0000 C   0  0  0  0  0  0  0  0  0  0  0  0
    9.9979   -9.1228    0.0000 Cl  0  0  0  0  0  0  0  0  0  0  0  0
    5.7144   -6.6563    0.0000 Cl  0  0  0  0  0  0  0  0  0  0  0  0
    7.8435   -6.2537    0.0000 C   0  0  0  0  0  0  0  0  0  0  0  0
    8.5430   -7.4413    0.0000 C   0  0  0  0  0  0  0  0  0  0  0  0
    7.8140   -7.0538    0.0000 C   0  0  0  0  0  0  0  0  0  0  0  0
    7.1418   -7.4738    0.0000 C   0  0  0  0  0  0  0  0  0  0  0  0
    8.5249   -6.6333    0.0000 N   0  0  0  0  0  0  0  0  0  0  0  0
 22 21  1  0  0  0  0
 12 10  2  0  0  0  0
 22  3  1  0  0  0  0
 10 11  1  0  0  0  0
  1 19  2  0  0  0  0
 11  7  2  0  0  0  0
 19 13  1  0  0  0  0
  7  3  1  0  0  0  0
 13 14  2  0  0  0  0
 22  2  1  0  0  0  0
 14 15  1  0  0  0  0
 15 16  2  0  0  0  0
 16  1  1  0  0  0  0
  2  9  2  0  0  0  0
  9  4  1  0  0  0  0
  4  6  2  0  0  0  0
  6 17  1  0  0  0  0
  6  5  1  0  0  0  0
 16 18  1  0  0  0  0
  5 20  2  0  0  0  0
 20  2  1  0  0  0  0
  3  8  2  0  0  0  0
  1 22  1  0  0  0  0
  8 12  1  0  0  0  0
 21 23  3  0  0  0  0
M  END
> <Molecule Name>
DNDI1268122

> <CDD Number>
CDD-1535184

> <IC50_uM>
0.05 (n=1)

$$$$

SketchEl molfile

 22 24  0  0  0  0  0  0  0  0999 V2000
    7.1286   -7.4587    0.0000 C   0  0  0  0  0  0  0  0  0  0  0  0
    7.1288   -6.6382    0.0000 C   0  0  0  0  0  0  0  0  0  0  0  0
    7.8392   -7.8692    0.0000 C   0  0  0  0  0  0  0  0  0  0  0  0
    6.4179   -7.8688    0.0000 C   0  0  0  0  0  0  0  0  0  0  0  0
    8.5445   -9.0983    0.0000 C   0  0  0  0  0  0  0  0  0  0  0  0
    9.2537   -7.8634    0.0000 C   0  0  0  0  0  0  0  0  0  0  0  0
    9.2562   -8.6882    0.0000 C   0  0  0  0  0  0  0  0  0  0  0  0
    6.4228   -8.6847    0.0000 C   0  0  0  0  0  0  0  0  0  0  0  0
    5.7109   -7.4553    0.0000 C   0  0  0  0  0  0  0  0  0  0  0  0
    7.8348   -8.6879    0.0000 C   0  0  0  0  0  0  0  0  0  0  0  0
    5.0000   -8.6862    0.0000 C   0  0  0  0  0  0  0  0  0  0  0  0
    5.7155   -9.0964    0.0000 N   0  0  0  0  0  0  0  0  0  0  0  0
    5.0006   -7.8647    0.0000 N   0  0  0  0  0  0  0  0  0  0  0  0
    7.8399   -5.4113    0.0000 C   0  0  0  0  0  0  0  0  0  0  0  0
    7.1289   -5.0000    0.0000 C   0  0  0  0  0  0  0  0  0  0  0  0
    6.4158   -5.4145    0.0000 C   0  0  0  0  0  0  0  0  0  0  0  0
    6.4188   -6.2330    0.0000 C   0  0  0  0  0  0  0  0  0  0  0  0
    7.8260   -6.2793    0.0000 C   0  0  0  0  0  0  0  0  0  0  0  0
    8.5212   -7.4265    0.0000 C   0  0  0  0  0  0  0  0  0  0  0  0
    7.8913   -6.9947    0.0000 O   0  0  0  0  0  0  0  0  0  0  0  0
    7.1230   -9.0961    0.0000 Cl  0  0  0  0  0  0  0  0  0  0  0  0
    5.7100   -6.6463    0.0000 F   0  0  0  0  0  0  0  0  0  0  0  0
  1  4  1  0  0  0  0
 11 12  1  0  0  0  0
  2 18  2  0  0  0  0
 12  8  2  0  0  0  0
 18 14  1  0  0  0  0
  8  4  1  0  0  0  0
 14 15  2  0  0  0  0
  1  3  1  0  0  0  0
 15 16  1  0  0  0  0
 16 17  2  0  0  0  0
 17  2  1  0  0  0  0
  3 10  2  0  0  0  0
 10  5  1  0  0  0  0
  5  7  2  0  0  0  0
  7  6  1  0  0  0  0
  6 19  2  0  0  0  0
 19  3  1  0  0  0  0
  4  9  2  0  0  0  0
  2  1  1  0  0  0  0
  1 20  1  0  0  0  0
  9 13  1  0  0  0  0
 10 21  1  0  0  0  0
 13 11  2  0  0  0  0
 17 22  1  0  0  0  0
M  END
> <Molecule Name>
DNDI1268123

> <CDD Number>
CDD-1535185

> <IC50_uM>
2.64 (n=1)

$$$$

SketchEl molfile

 22 24  0  0  0  0  0  0  0  0999 V2000
    7.1286   -8.2792    0.0000 C   0  0  0  0  0  0  0  0  0  0  0  0
    7.1288   -7.4587    0.0000 C   0  0  0  0  0  0  0  0  0  0  0  0
    7.8392   -8.6897    0.0000 C   0  0  0  0  0  0  0  0  0  0  0  0
    6.4179   -8.6893    0.0000 C   0  0  0  0  0  0  0  0  0  0  0  0
    8.5445   -9.9188    0.0000 C   0  0  0  0  0  0  0  0  0  0  0  0
    9.2537   -8.6839    0.0000 C   0  0  0  0  0  0  0  0  0  0  0  0
    9.2562   -9.5087    0.0000 C   0  0  0  0  0  0  0  0  0  0  0  0
    6.4228   -9.5052    0.0000 C   0  0  0  0  0  0  0  0  0  0  0  0
    5.7109   -8.2758    0.0000 C   0  0  0  0  0  0  0  0  0  0  0  0
    7.8348   -9.5084    0.0000 C   0  0  0  0  0  0  0  0  0  0  0  0
    5.0000   -9.5067    0.0000 C   0  0  0  0  0  0  0  0  0  0  0  0
    5.7155   -9.9169    0.0000 N   0  0  0  0  0  0  0  0  0  0  0  0
    5.0006   -8.6852    0.0000 N   0  0  0  0  0  0  0  0  0  0  0  0
    7.8399   -6.2318    0.0000 C   0  0  0  0  0  0  0  0  0  0  0  0
    7.1289   -5.8205    0.0000 C   0  0  0  0  0  0  0  0  0  0  0  0
    6.4158   -6.2350    0.0000 C   0  0  0  0  0  0  0  0  0  0  0  0
    6.4188   -7.0535    0.0000 C   0  0  0  0  0  0  0  0  0  0  0  0
    7.8260   -7.0998    0.0000 C   0  0  0  0  0  0  0  0  0  0  0  0
    8.5212   -8.2470    0.0000 C   0  0  0  0  0  0  0  0  0  0  0  0
    7.8913   -7.8152    0.0000 O   0  0  0  0  0  0  0  0  0  0  0  0
    9.9672   -9.9181    0.0000 Cl  0  0  0  0  0  0  0  0  0  0  0  0
    7.1280   -5.0000    0.0000 C   0  0  0  0  0  0  0  0  0  0  0  0
 11 12  1  0  0  0  0
  2 18  2  0  0  0  0
 12  8  2  0  0  0  0
 18 14  1  0  0  0  0
  8  4  1  0  0  0  0
 14 15  2  0  0  0  0
  1  3  1  0  0  0  0
 15 16  1  0  0  0  0
 16 17  2  0  0  0  0
 17  2  1  0  0  0  0
  3 10  2  0  0  0  0
 10  5  1  0  0  0  0
  5  7  2  0  0  0  0
  7  6  1  0  0  0  0
  6 19  2  0  0  0  0
 19  3  1  0  0  0  0
  4  9  2  0  0  0  0
  2  1  1  0  0  0  0
  1 20  1  0  0  0  0
  9 13  1  0  0  0  0
 13 11  2  0  0  0  0
  7 21  1  0  0  0  0
  1  4  1  0  0  0  0
 15 22  1  0  0  0  0
M  END
> <Molecule Name>
DNDI1268124

> <CDD Number>
CDD-1535186

> <IC50_uM>
0.0402293425250774 ร/รท 2.10083806412301 (n=2)

$$$$

SketchEl molfile

 22 24  0  0  0  0  0  0  0  0999 V2000
    7.1286   -7.4587    0.0000 C   0  0  0  0  0  0  0  0  0  0  0  0
    7.1288   -6.6382    0.0000 C   0  0  0  0  0  0  0  0  0  0  0  0
    7.8392   -7.8692    0.0000 C   0  0  0  0  0  0  0  0  0  0  0  0
    6.4179   -7.8688    0.0000 C   0  0  0  0  0  0  0  0  0  0  0  0
    8.5445   -9.0983    0.0000 C   0  0  0  0  0  0  0  0  0  0  0  0
    9.2537   -7.8634    0.0000 C   0  0  0  0  0  0  0  0  0  0  0  0
    9.2562   -8.6882    0.0000 C   0  0  0  0  0  0  0  0  0  0  0  0
    6.4228   -8.6847    0.0000 C   0  0  0  0  0  0  0  0  0  0  0  0
    5.7109   -7.4553    0.0000 C   0  0  0  0  0  0  0  0  0  0  0  0
    7.8348   -8.6879    0.0000 C   0  0  0  0  0  0  0  0  0  0  0  0
    5.0000   -8.6862    0.0000 C   0  0  0  0  0  0  0  0  0  0  0  0
    5.7155   -9.0964    0.0000 N   0  0  0  0  0  0  0  0  0  0  0  0
    5.0006   -7.8647    0.0000 N   0  0  0  0  0  0  0  0  0  0  0  0
    7.8399   -5.4113    0.0000 C   0  0  0  0  0  0  0  0  0  0  0  0
    7.1289   -5.0000    0.0000 C   0  0  0  0  0  0  0  0  0  0  0  0
    6.4158   -5.4145    0.0000 C   0  0  0  0  0  0  0  0  0  0  0  0
    6.4188   -6.2330    0.0000 C   0  0  0  0  0  0  0  0  0  0  0  0
    7.8260   -6.2793    0.0000 C   0  0  0  0  0  0  0  0  0  0  0  0
    8.5212   -7.4265    0.0000 C   0  0  0  0  0  0  0  0  0  0  0  0
    7.8913   -6.9947    0.0000 O   0  0  0  0  0  0  0  0  0  0  0  0
    9.9672   -9.0976    0.0000 Cl  0  0  0  0  0  0  0  0  0  0  0  0
    8.5540   -5.0070    0.0000 C   0  0  0  0  0  0  0  0  0  0  0  0
 11 12  1  0  0  0  0
  2 18  2  0  0  0  0
 12  8  2  0  0  0  0
 18 14  1  0  0  0  0
  8  4  1  0  0  0  0
 14 15  2  0  0  0  0
  1  3  1  0  0  0  0
 15 16  1  0  0  0  0
 16 17  2  0  0  0  0
 17  2  1  0  0  0  0
  3 10  2  0  0  0  0
 10  5  1  0  0  0  0
  5  7  2  0  0  0  0
  7  6  1  0  0  0  0
  6 19  2  0  0  0  0
 19  3  1  0  0  0  0
  4  9  2  0  0  0  0
  2  1  1  0  0  0  0
  1 20  1  0  0  0  0
  9 13  1  0  0  0  0
 13 11  2  0  0  0  0
  7 21  1  0  0  0  0
  1  4  1  0  0  0  0
 14 22  1  0  0  0  0
M  END
> <Molecule Name>
DNDI1268516

> <CDD Number>
CDD-1535187

> <IC50_uM>
0.3285 (n=1)

$$$$

SketchEl molfile

 26 28  0  0  0  0  0  0  0  0999 V2000
    7.1284   -7.4585    0.0000 C   0  0  0  0  0  0  0  0  0  0  0  0
    7.1286   -6.6380    0.0000 C   0  0  0  0  0  0  0  0  0  0  0  0
    7.8388   -7.8688    0.0000 C   0  0  0  0  0  0  0  0  0  0  0  0
    6.4178   -7.8685    0.0000 C   0  0  0  0  0  0  0  0  0  0  0  0
    8.5440   -9.0978    0.0000 C   0  0  0  0  0  0  0  0  0  0  0  0
    9.2532   -7.8630    0.0000 C   0  0  0  0  0  0  0  0  0  0  0  0
    9.2556   -8.6877    0.0000 C   0  0  0  0  0  0  0  0  0  0  0  0
    6.4226   -8.6842    0.0000 C   0  0  0  0  0  0  0  0  0  0  0  0
    5.7108   -7.4550    0.0000 C   0  0  0  0  0  0  0  0  0  0  0  0
    7.8344   -8.6875    0.0000 C   0  0  0  0  0  0  0  0  0  0  0  0
    5.0000   -8.6857    0.0000 C   0  0  0  0  0  0  0  0  0  0  0  0
    5.7154   -9.0959    0.0000 N   0  0  0  0  0  0  0  0  0  0  0  0
    5.0006   -7.8644    0.0000 C   0  0  0  0  0  0  0  0  0  0  0  0
    7.8396   -5.4113    0.0000 C   0  0  0  0  0  0  0  0  0  0  0  0
    7.1286   -5.0000    0.0000 C   0  0  0  0  0  0  0  0  0  0  0  0
    6.4157   -5.4145    0.0000 C   0  0  0  0  0  0  0  0  0  0  0  0
    6.4186   -6.2328    0.0000 C   0  0  0  0  0  0  0  0  0  0  0  0
    7.8257   -6.2791    0.0000 C   0  0  0  0  0  0  0  0  0  0  0  0
    8.5207   -7.4262    0.0000 C   0  0  0  0  0  0  0  0  0  0  0  0
    7.8910   -6.9945    0.0000 N   0  0  0  0  0  0  0  0  0  0  0  0
    9.9666   -9.0971    0.0000 Cl  0  0  0  0  0  0  0  0  0  0  0  0
    5.7099   -6.6461    0.0000 Cl  0  0  0  0  0  0  0  0  0  0  0  0
    8.7321   -7.0044    0.0000 C   0  0  0  0  0  0  0  0  0  0  0  0
    9.1507   -6.2988    0.0000 C   0  0  0  0  0  0  0  0  0  0  0  0
    9.9711   -6.3085    0.0000 C   0  0  0  0  0  0  0  0  0  0  0  0
    8.7489   -5.5835    0.0000 C   0  0  0  0  0  0  0  0  0  0  0  0
  8  4  1  0  0  0  0
 14 15  2  0  0  0  0
  1  3  1  0  0  0  0
 15 16  1  0  0  0  0
 16 17  2  0  0  0  0
 17  2  1  0  0  0  0
  3 10  2  0  0  0  0
 10  5  1  0  0  0  0
  5  7  2  0  0  0  0
  7  6  1  0  0  0  0
  6 19  2  0  0  0  0
 19  3  1  0  0  0  0
  4  9  2  0  0  0  0
  2  1  1  0  0  0  0
  1 20  1  0  0  0  0
  9 13  1  0  0  0  0
 13 11  2  0  0  0  0
  7 21  1  0  0  0  0
  1  4  1  0  0  0  0
 17 22  1  0  0  0  0
 11 12  1  0  0  0  0
 20 23  1  0  0  0  0
  2 18  2  0  0  0  0
 23 24  1  0  0  0  0
 12  8  2  0  0  0  0
 24 25  1  0  0  0  0
 18 14  1  0  0  0  0
 24 26  1  0  0  0  0
M  END
> <Molecule Name>
DNDI1268517

> <CDD Number>
CDD-1535188

> <IC50_uM>
0.6056 (n=1)

$$$$

SketchEl molfile

 25 26  0  0  0  0  0  0  0  0999 V2000
    7.1295   -8.2806    0.0000 C   0  0  0  0  0  0  0  0  0  0  0  0
    7.1297   -7.4597    0.0000 C   0  0  0  0  0  0  0  0  0  0  0  0
    7.8403   -8.6912    0.0000 C   0  0  0  0  0  0  0  0  0  0  0  0
    6.4185   -8.6908    0.0000 C   0  0  0  0  0  0  0  0  0  0  0  0
    8.5459   -9.9208    0.0000 C   0  0  0  0  0  0  0  0  0  0  0  0
    9.2555   -8.6854    0.0000 C   0  0  0  0  0  0  0  0  0  0  0  0
    9.2579   -9.5105    0.0000 C   0  0  0  0  0  0  0  0  0  0  0  0
    6.4234   -9.5070    0.0000 C   0  0  0  0  0  0  0  0  0  0  0  0
    5.7112   -8.2771    0.0000 C   0  0  0  0  0  0  0  0  0  0  0  0
    7.8360   -9.5103    0.0000 C   0  0  0  0  0  0  0  0  0  0  0  0
    5.0000   -9.5085    0.0000 C   0  0  0  0  0  0  0  0  0  0  0  0
    5.7158   -9.9189    0.0000 N   0  0  0  0  0  0  0  0  0  0  0  0
    5.0006   -8.6867    0.0000 C   0  0  0  0  0  0  0  0  0  0  0  0
    7.8411   -6.2323    0.0000 C   0  0  0  0  0  0  0  0  0  0  0  0
    7.1298   -5.8208    0.0000 C   0  0  0  0  0  0  0  0  0  0  0  0
    6.4164   -6.2355    0.0000 C   0  0  0  0  0  0  0  0  0  0  0  0
    6.4194   -7.0543    0.0000 C   0  0  0  0  0  0  0  0  0  0  0  0
    7.8272   -7.1006    0.0000 C   0  0  0  0  0  0  0  0  0  0  0  0
    8.5226   -8.2483    0.0000 C   0  0  0  0  0  0  0  0  0  0  0  0
    7.8925   -7.8163    0.0000 O   0  0  0  0  0  0  0  0  0  0  0  0
    9.9693   -9.9201    0.0000 Cl  0  0  0  0  0  0  0  0  0  0  0  0
    5.7103   -7.4678    0.0000 Cl  0  0  0  0  0  0  0  0  0  0  0  0
    7.1289   -5.0000    0.0000 Cl  0  0  0  0  0  0  0  0  0  0  0  0
   10.4072   -7.5358    0.0000 Cl  0  0  0  0  0  0  0  0  0  0  0  0
    9.6963   -7.9462    0.0000 H   0  0  0  0  0  0  0  0  0  0  0  0
 11 12  1  0  0  0  0
  2 18  2  0  0  0  0
 12  8  2  0  0  0  0
 18 14  1  0  0  0  0
  8  4  1  0  0  0  0
 14 15  2  0  0  0  0
  1  3  1  0  0  0  0
 15 16  1  0  0  0  0
 16 17  2  0  0  0  0
 17  2  1  0  0  0  0
  3 10  2  0  0  0  0
 10  5  1  0  0  0  0
  5  7  2  0  0  0  0
  7  6  1  0  0  0  0
  6 19  2  0  0  0  0
 19  3  1  0  0  0  0
  4  9  2  0  0  0  0
  2  1  1  0  0  0  0
  1 20  1  0  0  0  0
  9 13  1  0  0  0  0
 13 11  2  0  0  0  0
  7 21  1  0  0  0  0
  1  4  1  0  0  0  0
 17 22  1  0  0  0  0
 15 23  1  0  0  0  0
 25 24  1  0  0  0  0
M  END
> <Molecule Name>
DNDI1268521

> <CDD Number>
CDD-1535189

> <IC50_uM>
0.015 (n=1)

$$$$

SketchEl molfile

 23 25  0  0  0  0  0  0  0  0999 V2000
    7.1291   -8.6911    0.0000 C   0  0  0  0  0  0  0  0  0  0  0  0
    7.1293   -7.8704    0.0000 C   0  0  0  0  0  0  0  0  0  0  0  0
    7.8398   -9.1016    0.0000 C   0  0  0  0  0  0  0  0  0  0  0  0
    6.4182   -9.1013    0.0000 C   0  0  0  0  0  0  0  0  0  0  0  0
    8.5452  -10.3310    0.0000 C   0  0  0  0  0  0  0  0  0  0  0  0
    9.2546   -9.0958    0.0000 C   0  0  0  0  0  0  0  0  0  0  0  0
    9.2571   -9.9208    0.0000 C   0  0  0  0  0  0  0  0  0  0  0  0
    6.4231   -9.9173    0.0000 C   0  0  0  0  0  0  0  0  0  0  0  0
    5.7110   -8.6877    0.0000 C   0  0  0  0  0  0  0  0  0  0  0  0
    7.8354   -9.9206    0.0000 C   0  0  0  0  0  0  0  0  0  0  0  0
    5.0000   -9.9188    0.0000 C   0  0  0  0  0  0  0  0  0  0  0  0
    5.7157  -10.3291    0.0000 N   0  0  0  0  0  0  0  0  0  0  0  0
    5.0006   -9.0972    0.0000 C   0  0  0  0  0  0  0  0  0  0  0  0
    7.8406   -6.6432    0.0000 C   0  0  0  0  0  0  0  0  0  0  0  0
    7.1294   -6.2318    0.0000 C   0  0  0  0  0  0  0  0  0  0  0  0
    6.4161   -6.6464    0.0000 C   0  0  0  0  0  0  0  0  0  0  0  0
    6.4191   -7.4650    0.0000 C   0  0  0  0  0  0  0  0  0  0  0  0
    7.8266   -7.5114    0.0000 C   0  0  0  0  0  0  0  0  0  0  0  0
    8.5219   -8.6588    0.0000 C   0  0  0  0  0  0  0  0  0  0  0  0
    7.8920   -8.2270    0.0000 O   0  0  0  0  0  0  0  0  0  0  0  0
    9.9683  -10.3303    0.0000 Cl  0  0  0  0  0  0  0  0  0  0  0  0
    7.1285   -5.4111    0.0000 O   0  0  0  0  0  0  0  0  0  0  0  0
    7.8388   -5.0000    0.0000 C   0  0  0  0  0  0  0  0  0  0  0  0
  2 18  2  0  0  0  0
 12  8  2  0  0  0  0
 18 14  1  0  0  0  0
  8  4  1  0  0  0  0
 14 15  2  0  0  0  0
  1  3  1  0  0  0  0
 15 16  1  0  0  0  0
 16 17  2  0  0  0  0
 17  2  1  0  0  0  0
  3 10  2  0  0  0  0
 10  5  1  0  0  0  0
  5  7  2  0  0  0  0
  7  6  1  0  0  0  0
  6 19  2  0  0  0  0
 19  3  1  0  0  0  0
  4  9  2  0  0  0  0
  2  1  1  0  0  0  0
  1 20  1  0  0  0  0
  9 13  1  0  0  0  0
 13 11  2  0  0  0  0
  7 21  1  0  0  0  0
  1  4  1  0  0  0  0
 15 22  1  0  0  0  0
 11 12  1  0  0  0  0
 22 23  1  0  0  0  0
M  END
> <Molecule Name>
DNDI1278547

> <CDD Number>
CDD-1535190

> <IC50_uM>
0.04 (n=1)

$$$$

SketchEl molfile

 22 24  0  0  0  0  0  0  0  0999 V2000
    7.1286   -7.4587    0.0000 C   0  0  0  0  0  0  0  0  0  0  0  0
    7.1288   -6.6382    0.0000 C   0  0  0  0  0  0  0  0  0  0  0  0
    7.8392   -7.8692    0.0000 C   0  0  0  0  0  0  0  0  0  0  0  0
    6.4179   -7.8688    0.0000 C   0  0  0  0  0  0  0  0  0  0  0  0
    8.5445   -9.0983    0.0000 C   0  0  0  0  0  0  0  0  0  0  0  0
    9.2537   -7.8634    0.0000 C   0  0  0  0  0  0  0  0  0  0  0  0
    9.2562   -8.6882    0.0000 C   0  0  0  0  0  0  0  0  0  0  0  0
    6.4228   -8.6847    0.0000 C   0  0  0  0  0  0  0  0  0  0  0  0
    5.7109   -7.4553    0.0000 C   0  0  0  0  0  0  0  0  0  0  0  0
    7.8348   -8.6879    0.0000 C   0  0  0  0  0  0  0  0  0  0  0  0
    5.0000   -8.6862    0.0000 C   0  0  0  0  0  0  0  0  0  0  0  0
    5.7155   -9.0964    0.0000 N   0  0  0  0  0  0  0  0  0  0  0  0
    5.0006   -7.8647    0.0000 C   0  0  0  0  0  0  0  0  0  0  0  0
    7.8399   -5.4113    0.0000 C   0  0  0  0  0  0  0  0  0  0  0  0
    7.1289   -5.0000    0.0000 C   0  0  0  0  0  0  0  0  0  0  0  0
    6.4158   -5.4145    0.0000 C   0  0  0  0  0  0  0  0  0  0  0  0
    6.4188   -6.2330    0.0000 C   0  0  0  0  0  0  0  0  0  0  0  0
    7.8260   -6.2793    0.0000 C   0  0  0  0  0  0  0  0  0  0  0  0
    8.5212   -7.4265    0.0000 C   0  0  0  0  0  0  0  0  0  0  0  0
    7.8913   -6.9947    0.0000 O   0  0  0  0  0  0  0  0  0  0  0  0
    9.9672   -9.0976    0.0000 Cl  0  0  0  0  0  0  0  0  0  0  0  0
    5.7100   -6.6463    0.0000 C   0  0  0  0  0  0  0  0  0  0  0  0
  2 18  2  0  0  0  0
 12  8  2  0  0  0  0
 18 14  1  0  0  0  0
  8  4  1  0  0  0  0
 14 15  2  0  0  0  0
  1  3  1  0  0  0  0
 15 16  1  0  0  0  0
 16 17  2  0  0  0  0
 17  2  1  0  0  0  0
  3 10  2  0  0  0  0
 10  5  1  0  0  0  0
  5  7  2  0  0  0  0
  7  6  1  0  0  0  0
  6 19  2  0  0  0  0
 19  3  1  0  0  0  0
  4  9  2  0  0  0  0
  2  1  1  0  0  0  0
  1 20  1  0  0  0  0
  9 13  1  0  0  0  0
 13 11  2  0  0  0  0
  7 21  1  0  0  0  0
  1  4  1  0  0  0  0
 11 12  1  0  0  0  0
 17 22  1  0  0  0  0
M  END
> <Molecule Name>
DNDI1278548

> <CDD Number>
CDD-1535191

> <IC50_uM>
0.37 (n=1)

$$$$

SketchEl molfile

 30 33  0  0  0  0  0  0  0  0999 V2000
    7.0844   -7.8264    0.0000 C   0  0  0  0  0  0  0  0  0  0  0  0
    7.0846   -7.0229    0.0000 C   0  0  0  0  0  0  0  0  0  0  0  0
    7.7801   -8.2283    0.0000 C   0  0  0  0  0  0  0  0  0  0  0  0
    6.3884   -8.2279    0.0000 C   0  0  0  0  0  0  0  0  0  0  0  0
    8.4707   -9.4318    0.0000 C   0  0  0  0  0  0  0  0  0  0  0  0
    9.1652   -8.2226    0.0000 C   0  0  0  0  0  0  0  0  0  0  0  0
    9.1676   -9.0302    0.0000 C   0  0  0  0  0  0  0  0  0  0  0  0
    6.3932   -9.0268    0.0000 C   0  0  0  0  0  0  0  0  0  0  0  0
    5.6961   -7.8230    0.0000 C   0  0  0  0  0  0  0  0  0  0  0  0
    7.7758   -9.0300    0.0000 C   0  0  0  0  0  0  0  0  0  0  0  0
    5.0000   -9.0282    0.0000 C   0  0  0  0  0  0  0  0  0  0  0  0
    5.7006   -9.4300    0.0000 N   0  0  0  0  0  0  0  0  0  0  0  0
    5.0006   -8.2239    0.0000 C   0  0  0  0  0  0  0  0  0  0  0  0
    7.7809   -5.8215    0.0000 C   0  0  0  0  0  0  0  0  0  0  0  0
    7.0846   -5.4188    0.0000 C   0  0  0  0  0  0  0  0  0  0  0  0
    6.3864   -5.8247    0.0000 C   0  0  0  0  0  0  0  0  0  0  0  0
    6.3893   -6.6261    0.0000 C   0  0  0  0  0  0  0  0  0  0  0  0
    7.7672   -6.6714    0.0000 C   0  0  0  0  0  0  0  0  0  0  0  0
    8.4479   -7.7948    0.0000 C   0  0  0  0  0  0  0  0  0  0  0  0
    7.8312   -7.3720    0.0000 N   0  0  0  0  0  0  0  0  0  0  0  0
    9.8639   -9.4312    0.0000 Cl  0  0  0  0  0  0  0  0  0  0  0  0
    5.6952   -7.0308    0.0000 Cl  0  0  0  0  0  0  0  0  0  0  0  0
    8.6715   -7.1420    0.0000 C   0  0  0  0  0  0  0  0  0  0  0  0
    8.8924   -6.2993    0.0000 C   0  0  0  0  0  0  0  0  0  0  0  0
    9.7327   -6.0693    0.0000 N   0  0  0  0  0  0  0  0  0  0  0  0
   10.3472   -6.6838    0.0000 C   0  0  0  0  0  0  0  0  0  0  0  0
   11.1844   -6.4568    0.0000 C   0  0  0  0  0  0  0  0  0  0  0  0
   11.4098   -5.6149    0.0000 O   0  0  0  0  0  0  0  0  0  0  0  0
   10.7913   -5.0000    0.0000 C   0  0  0  0  0  0  0  0  0  0  0  0
    9.9473   -5.2270    0.0000 C   0  0  0  0  0  0  0  0  0  0  0  0
 16 17  2  0  0  0  0
 17  2  1  0  0  0  0
  3 10  2  0  0  0  0
 10  5  1  0  0  0  0
  5  7  2  0  0  0  0
  7  6  1  0  0  0  0
  6 19  2  0  0  0  0
 19  3  1  0  0  0  0
  4  9  2  0  0  0  0
  2  1  1  0  0  0  0
  1 20  1  0  0  0  0
  9 13  1  0  0  0  0
 13 11  2  0  0  0  0
  7 21  1  0  0  0  0
  1  4  1  0  0  0  0
 11 12  1  0  0  0  0
 17 22  1  0  0  0  0
 20 23  1  0  0  0  0
  2 18  2  0  0  0  0
 23 24  1  0  0  0  0
 12  8  2  0  0  0  0
 24 25  1  0  0  0  0
 25 26  1  0  0  0  0
 18 14  1  0  0  0  0
  8  4  1  0  0  0  0
 14 15  2  0  0  0  0
  1  3  1  0  0  0  0
 15 16  1  0  0  0  0
 25 30  1  0  0  0  0
 26 27  1  0  0  0  0
 27 28  1  0  0  0  0
 28 29  1  0  0  0  0
 29 30  1  0  0  0  0
M  END
> <Molecule Name>
DNDI1278549

> <CDD Number>
CDD-1535192

> <IC50_uM>
0.6545 (n=1)

$$$$

SketchEl molfile

 21 23  0  0  0  0  0  0  0  0999 V2000
    7.1363   -7.4676    0.0000 C   0  0  0  0  0  0  0  0  0  0  0  0
    7.1365   -6.6441    0.0000 C   0  0  0  0  0  0  0  0  0  0  0  0
    7.8493   -7.8795    0.0000 C   0  0  0  0  0  0  0  0  0  0  0  0
    6.4230   -7.8791    0.0000 C   0  0  0  0  0  0  0  0  0  0  0  0
    8.5572   -9.1130    0.0000 C   0  0  0  0  0  0  0  0  0  0  0  0
    9.2690   -7.8736    0.0000 C   0  0  0  0  0  0  0  0  0  0  0  0
    9.2714   -8.7014    0.0000 C   0  0  0  0  0  0  0  0  0  0  0  0
    6.4279   -8.6979    0.0000 C   0  0  0  0  0  0  0  0  0  0  0  0
    5.7134   -7.4641    0.0000 C   0  0  0  0  0  0  0  0  0  0  0  0
    7.8450   -8.7012    0.0000 C   0  0  0  0  0  0  0  0  0  0  0  0
    5.0000   -8.6994    0.0000 C   0  0  0  0  0  0  0  0  0  0  0  0
    5.7181   -9.1111    0.0000 N   0  0  0  0  0  0  0  0  0  0  0  0
    5.0006   -7.8750    0.0000 C   0  0  0  0  0  0  0  0  0  0  0  0
    7.8501   -5.4128    0.0000 C   0  0  0  0  0  0  0  0  0  0  0  0
    7.1365   -5.0000    0.0000 C   0  0  0  0  0  0  0  0  0  0  0  0
    6.4209   -5.4160    0.0000 C   0  0  0  0  0  0  0  0  0  0  0  0
    6.4239   -6.2374    0.0000 C   0  0  0  0  0  0  0  0  0  0  0  0
    7.8362   -6.2839    0.0000 C   0  0  0  0  0  0  0  0  0  0  0  0
    8.5338   -7.4352    0.0000 C   0  0  0  0  0  0  0  0  0  0  0  0
    9.9850   -9.1123    0.0000 Cl  0  0  0  0  0  0  0  0  0  0  0  0
    5.7125   -6.6522    0.0000 Cl  0  0  0  0  0  0  0  0  0  0  0  0
 16 17  2  0  0  0  0
 17  2  1  0  0  0  0
  3 10  2  0  0  0  0
 10  5  1  0  0  0  0
  5  7  2  0  0  0  0
  7  6  1  0  0  0  0
  6 19  2  0  0  0  0
 19  3  1  0  0  0  0
  4  9  2  0  0  0  0
  2  1  1  0  0  0  0
  9 13  1  0  0  0  0
 13 11  2  0  0  0  0
  7 20  1  0  0  0  0
  1  4  1  0  0  0  0
 11 12  1  0  0  0  0
 17 21  1  0  0  0  0
  2 18  2  0  0  0  0
 12  8  2  0  0  0  0
 18 14  1  0  0  0  0
  8  4  1  0  0  0  0
 14 15  2  0  0  0  0
  1  3  1  0  0  0  0
 15 16  1  0  0  0  0
M  END
> <Molecule Name>
DNDI1278550

> <CDD Number>
CDD-1535193

> <IC50_uM>
0.23 (n=1)

$$$$

SketchEl molfile

 21 23  0  0  0  0  0  0  0  0999 V2000
    7.1363   -8.2910    0.0000 C   0  0  0  0  0  0  0  0  0  0  0  0
    7.1365   -7.4675    0.0000 C   0  0  0  0  0  0  0  0  0  0  0  0
    7.8493   -8.7029    0.0000 C   0  0  0  0  0  0  0  0  0  0  0  0
    6.4230   -8.7025    0.0000 C   0  0  0  0  0  0  0  0  0  0  0  0
    8.5572   -9.9364    0.0000 C   0  0  0  0  0  0  0  0  0  0  0  0
    9.2690   -8.6970    0.0000 C   0  0  0  0  0  0  0  0  0  0  0  0
    9.2714   -9.5248    0.0000 C   0  0  0  0  0  0  0  0  0  0  0  0
    6.4279   -9.5213    0.0000 C   0  0  0  0  0  0  0  0  0  0  0  0
    5.7134   -8.2875    0.0000 C   0  0  0  0  0  0  0  0  0  0  0  0
    7.8450   -9.5246    0.0000 C   0  0  0  0  0  0  0  0  0  0  0  0
    5.0000   -9.5228    0.0000 C   0  0  0  0  0  0  0  0  0  0  0  0
    5.7181   -9.9345    0.0000 N   0  0  0  0  0  0  0  0  0  0  0  0
    5.0006   -8.6984    0.0000 N   0  0  0  0  0  0  0  0  0  0  0  0
    7.8501   -6.2362    0.0000 C   0  0  0  0  0  0  0  0  0  0  0  0
    7.1365   -5.8234    0.0000 C   0  0  0  0  0  0  0  0  0  0  0  0
    6.4209   -6.2394    0.0000 C   0  0  0  0  0  0  0  0  0  0  0  0
    6.4239   -7.0608    0.0000 C   0  0  0  0  0  0  0  0  0  0  0  0
    7.8362   -7.1073    0.0000 C   0  0  0  0  0  0  0  0  0  0  0  0
    8.5338   -8.2586    0.0000 C   0  0  0  0  0  0  0  0  0  0  0  0
    9.9850   -9.9357    0.0000 Cl  0  0  0  0  0  0  0  0  0  0  0  0
    7.1356   -5.0000    0.0000 Cl  0  0  0  0  0  0  0  0  0  0  0  0
 16 17  2  0  0  0  0
 17  2  1  0  0  0  0
  3 10  2  0  0  0  0
 10  5  1  0  0  0  0
  5  7  2  0  0  0  0
  7  6  1  0  0  0  0
  6 19  2  0  0  0  0
 19  3  1  0  0  0  0
  4  9  2  0  0  0  0
  2  1  1  0  0  0  0
  9 13  1  0  0  0  0
 13 11  2  0  0  0  0
  7 20  1  0  0  0  0
  1  4  1  0  0  0  0
 11 12  1  0  0  0  0
  2 18  2  0  0  0  0
 12  8  2  0  0  0  0
 18 14  1  0  0  0  0
  8  4  1  0  0  0  0
 14 15  2  0  0  0  0
  1  3  1  0  0  0  0
 15 16  1  0  0  0  0
 15 21  1  0  0  0  0
M  END
> <Molecule Name>
DNDI1278551

> <CDD Number>
CDD-1535148

> <IC50_uM>
0.6825 (n=1)

$$$$

SketchEl molfile

 19 20  0  0  0  0  0  0  0  0999 V2000
    7.1262   -7.4500    0.0000 C   0  0  0  0  0  0  0  0  0  0  0  0
    7.1262   -6.6294    0.0000 C   0  0  0  0  0  0  0  0  0  0  0  0
    6.4175   -7.8603    0.0000 C   0  0  0  0  0  0  0  0  0  0  0  0
    7.8391   -7.8603    0.0000 C   0  0  0  0  0  0  0  0  0  0  0  0
    6.4175   -6.2232    0.0000 C   0  0  0  0  0  0  0  0  0  0  0  0
    5.7129   -9.0872    0.0000 N   0  0  0  0  0  0  0  0  0  0  0  0
    7.8349   -8.6810    0.0000 C   0  0  0  0  0  0  0  0  0  0  0  0
    8.5188   -7.4169    0.0000 C   0  0  0  0  0  0  0  0  0  0  0  0
    7.8888   -6.9858    0.0000 O   0  0  0  0  0  0  0  0  0  0  0  0
    9.2565   -8.6810    0.0000 C   0  0  0  0  0  0  0  0  0  0  0  0
    8.5437   -9.0913    0.0000 C   0  0  0  0  0  0  0  0  0  0  0  0
    9.2524   -7.8562    0.0000 C   0  0  0  0  0  0  0  0  0  0  0  0
    6.4216   -8.6768    0.0000 C   0  0  0  0  0  0  0  0  0  0  0  0
    9.9653   -9.0913    0.0000 Cl  0  0  0  0  0  0  0  0  0  0  0  0
    5.7087   -7.4459    0.0000 C   0  0  0  0  0  0  0  0  0  0  0  0
    5.0000   -8.6768    0.0000 C   0  0  0  0  0  0  0  0  0  0  0  0
    6.4133   -5.4067    0.0000 C   0  0  0  0  0  0  0  0  0  0  0  0
    5.0000   -7.8562    0.0000 C   0  0  0  0  0  0  0  0  0  0  0  0
    5.7006   -5.0000    0.0000 C   0  0  0  0  0  0  0  0  0  0  0  0
  2  1  1  0  0  0  0
  3  1  1  0  0  0  0
  4  1  1  0  0  0  0
  5  2  1  0  0  0  0
  6 13  2  0  0  0  0
  7  4  2  0  0  0  0
  8  4  1  0  0  0  0
  9  1  1  0  0  0  0
 10 12  1  0  0  0  0
 11  7  1  0  0  0  0
 12  8  2  0  0  0  0
 13  3  1  0  0  0  0
 14 10  1  0  0  0  0
 15  3  2  0  0  0  0
 16 18  2  0  0  0  0
 17  5  1  0  0  0  0
 18 15  1  0  0  0  0
 10 11  2  0  0  0  0
  6 16  1  0  0  0  0
 17 19  1  0  0  0  0
M  END
> <Molecule Name>
DNDI1294204

> <CDD Number>
CDD-1535194

> <IC50_uM>
0.029 (n=1)

$$$$

SketchEl molfile

 19 20  0  0  0  0  0  0  0  0999 V2000
    7.1262   -7.4500    0.0000 C   0  0  0  0  0  0  0  0  0  0  0  0
    7.1262   -6.6294    0.0000 C   0  0  0  0  0  0  0  0  0  0  0  0
    6.4175   -7.8603    0.0000 C   0  0  0  0  0  0  0  0  0  0  0  0
    7.8391   -7.8603    0.0000 C   0  0  0  0  0  0  0  0  0  0  0  0
    6.4175   -6.2232    0.0000 C   0  0  0  0  0  0  0  0  0  0  0  0
    5.7129   -9.0872    0.0000 N   0  0  0  0  0  0  0  0  0  0  0  0
    7.8349   -8.6810    0.0000 C   0  0  0  0  0  0  0  0  0  0  0  0
    8.5188   -7.4169    0.0000 C   0  0  0  0  0  0  0  0  0  0  0  0
    7.8888   -6.9858    0.0000 O   0  0  0  0  0  0  0  0  0  0  0  0
    9.2565   -8.6810    0.0000 C   0  0  0  0  0  0  0  0  0  0  0  0
    8.5437   -9.0913    0.0000 C   0  0  0  0  0  0  0  0  0  0  0  0
    9.2524   -7.8562    0.0000 C   0  0  0  0  0  0  0  0  0  0  0  0
    6.4216   -8.6768    0.0000 C   0  0  0  0  0  0  0  0  0  0  0  0
    9.9653   -9.0913    0.0000 Cl  0  0  0  0  0  0  0  0  0  0  0  0
    5.7087   -7.4459    0.0000 C   0  0  0  0  0  0  0  0  0  0  0  0
    5.0000   -8.6768    0.0000 C   0  0  0  0  0  0  0  0  0  0  0  0
    6.4133   -5.4067    0.0000 C   0  0  0  0  0  0  0  0  0  0  0  0
    5.0000   -7.8562    0.0000 N   0  0  0  0  0  0  0  0  0  0  0  0
    5.7006   -5.0000    0.0000 C   0  0  0  0  0  0  0  0  0  0  0  0
  2  1  1  0  0  0  0
  3  1  1  0  0  0  0
  4  1  1  0  0  0  0
  5  2  1  0  0  0  0
  6 13  2  0  0  0  0
  7  4  2  0  0  0  0
  8  4  1  0  0  0  0
  9  1  1  0  0  0  0
 10 12  1  0  0  0  0
 11  7  1  0  0  0  0
 12  8  2  0  0  0  0
 13  3  1  0  0  0  0
 14 10  1  0  0  0  0
 15  3  2  0  0  0  0
 16 18  2  0  0  0  0
 17  5  1  0  0  0  0
 18 15  1  0  0  0  0
 10 11  2  0  0  0  0
  6 16  1  0  0  0  0
 17 19  1  0  0  0  0
M  END
> <Molecule Name>
DNDI1294205

> <CDD Number>
CDD-1535195

> <IC50_uM>
0.5 (n=1)

$$$$

SketchEl molfile

 20 22  0  0  0  0  0  0  0  0999 V2000
    7.1258   -7.0867    0.0000 C   0  0  0  0  0  0  0  0  0  0  0  0
    7.1258   -6.2663    0.0000 C   0  0  0  0  0  0  0  0  0  0  0  0
    6.4172   -7.4970    0.0000 C   0  0  0  0  0  0  0  0  0  0  0  0
    7.8385   -7.4970    0.0000 C   0  0  0  0  0  0  0  0  0  0  0  0
    5.7127   -8.7236    0.0000 N   0  0  0  0  0  0  0  0  0  0  0  0
    7.8344   -8.3175    0.0000 C   0  0  0  0  0  0  0  0  0  0  0  0
    8.5181   -7.0536    0.0000 C   0  0  0  0  0  0  0  0  0  0  0  0
    7.8883   -6.6226    0.0000 O   0  0  0  0  0  0  0  0  0  0  0  0
    9.2557   -8.3175    0.0000 C   0  0  0  0  0  0  0  0  0  0  0  0
    8.5430   -8.7277    0.0000 C   0  0  0  0  0  0  0  0  0  0  0  0
    9.2516   -7.4928    0.0000 C   0  0  0  0  0  0  0  0  0  0  0  0
    6.4213   -8.3133    0.0000 C   0  0  0  0  0  0  0  0  0  0  0  0
    9.9643   -8.7277    0.0000 Cl  0  0  0  0  0  0  0  0  0  0  0  0
    5.7086   -7.0826    0.0000 C   0  0  0  0  0  0  0  0  0  0  0  0
    5.0000   -8.3133    0.0000 C   0  0  0  0  0  0  0  0  0  0  0  0
    5.0000   -7.4928    0.0000 C   0  0  0  0  0  0  0  0  0  0  0  0
    7.7869   -5.7803    0.0000 C   0  0  0  0  0  0  0  0  0  0  0  0
    7.5333   -5.0000    0.0000 C   0  0  0  0  0  0  0  0  0  0  0  0
    6.7128   -5.0000    0.0000 C   0  0  0  0  0  0  0  0  0  0  0  0
    6.4594   -5.7803    0.0000 S   0  0  0  0  0  0  0  0  0  0  0  0
  5 12  2  0  0  0  0
  6  4  2  0  0  0  0
  7  4  1  0  0  0  0
  8  1  1  0  0  0  0
  9 11  1  0  0  0  0
 10  6  1  0  0  0  0
 11  7  2  0  0  0  0
 12  3  1  0  0  0  0
 13  9  1  0  0  0  0
 14  3  2  0  0  0  0
 15 16  2  0  0  0  0
 16 14  1  0  0  0  0
  9 10  2  0  0  0  0
  5 15  1  0  0  0  0
  2 17  2  0  0  0  0
  2  1  1  0  0  0  0
  3  1  1  0  0  0  0
  4  1  1  0  0  0  0
 17 18  1  0  0  0  0
 18 19  2  0  0  0  0
 19 20  1  0  0  0  0
 20  2  1  0  0  0  0
M  END
> <Molecule Name>
DNDI1294206

> <CDD Number>
CDD-1535196

> <IC50_uM>
0.0148660687473185 ร/รท 1.20887634066034 (n=2)

$$$$

SketchEl molfile

 22 24  0  0  0  0  0  0  0  0999 V2000
    7.1274   -7.4614    0.0000 C   0  0  0  0  0  0  0  0  0  0  0  0
    7.1274   -6.6403    0.0000 C   0  0  0  0  0  0  0  0  0  0  0  0
    6.4182   -7.8720    0.0000 C   0  0  0  0  0  0  0  0  0  0  0  0
    7.8406   -7.8720    0.0000 C   0  0  0  0  0  0  0  0  0  0  0  0
    5.7133   -9.0995    0.0000 N   0  0  0  0  0  0  0  0  0  0  0  0
    7.8365   -8.6931    0.0000 C   0  0  0  0  0  0  0  0  0  0  0  0
    8.5207   -7.4283    0.0000 C   0  0  0  0  0  0  0  0  0  0  0  0
    7.8904   -6.9970    0.0000 N   0  0  0  0  0  0  0  0  0  0  0  0
    9.2589   -8.6931    0.0000 C   0  0  0  0  0  0  0  0  0  0  0  0
    8.5456   -9.1036    0.0000 C   0  0  0  0  0  0  0  0  0  0  0  0
    9.2547   -7.8678    0.0000 C   0  0  0  0  0  0  0  0  0  0  0  0
    6.4224   -8.6889    0.0000 C   0  0  0  0  0  0  0  0  0  0  0  0
    9.9680   -9.1036    0.0000 Cl  0  0  0  0  0  0  0  0  0  0  0  0
    5.7091   -7.4573    0.0000 C   0  0  0  0  0  0  0  0  0  0  0  0
    5.0000   -8.6889    0.0000 C   0  0  0  0  0  0  0  0  0  0  0  0
    5.0000   -7.8678    0.0000 C   0  0  0  0  0  0  0  0  0  0  0  0
    7.8407   -6.2317    0.0000 C   0  0  0  0  0  0  0  0  0  0  0  0
    7.8411   -5.4113    0.0000 C   0  0  0  0  0  0  0  0  0  0  0  0
    7.1295   -5.0000    0.0000 C   0  0  0  0  0  0  0  0  0  0  0  0
    6.4160   -5.4149    0.0000 C   0  0  0  0  0  0  0  0  0  0  0  0
    6.4192   -6.2339    0.0000 C   0  0  0  0  0  0  0  0  0  0  0  0
    5.7094   -6.6467    0.0000 Cl  0  0  0  0  0  0  0  0  0  0  0  0
 10  6  1  0  0  0  0
 11  7  2  0  0  0  0
 12  3  1  0  0  0  0
 13  9  1  0  0  0  0
 14  3  2  0  0  0  0
 15 16  2  0  0  0  0
 16 14  1  0  0  0  0
  9 10  2  0  0  0  0
  5 15  1  0  0  0  0
  2  1  1  0  0  0  0
  3  1  1  0  0  0  0
  4  1  1  0  0  0  0
  2 17  2  0  0  0  0
  5 12  2  0  0  0  0
 17 18  1  0  0  0  0
  6  4  2  0  0  0  0
 18 19  2  0  0  0  0
  7  4  1  0  0  0  0
 19 20  1  0  0  0  0
  8  1  1  0  0  0  0
 20 21  2  0  0  0  0
 21  2  1  0  0  0  0
  9 11  1  0  0  0  0
 21 22  1  0  0  0  0
M  END
> <Molecule Name>
DNDI1294207

> <CDD Number>
CDD-1535197

> <IC50_uM>
0.09 (n=1)

$$$$

SketchEl molfile

 23 25  0  0  0  0  0  0  0  0999 V2000
    7.1278   -8.2831    0.0000 C   0  0  0  0  0  0  0  0  0  0  0  0
    7.1278   -7.4619    0.0000 C   0  0  0  0  0  0  0  0  0  0  0  0
    6.4185   -8.6937    0.0000 C   0  0  0  0  0  0  0  0  0  0  0  0
    7.8412   -8.6937    0.0000 C   0  0  0  0  0  0  0  0  0  0  0  0
    5.7134   -9.9215    0.0000 N   0  0  0  0  0  0  0  0  0  0  0  0
    7.8370   -9.5150    0.0000 C   0  0  0  0  0  0  0  0  0  0  0  0
    8.5214   -8.2499    0.0000 C   0  0  0  0  0  0  0  0  0  0  0  0
    7.8909   -7.8186    0.0000 O   0  0  0  0  0  0  0  0  0  0  0  0
    9.2597   -9.5150    0.0000 C   0  0  0  0  0  0  0  0  0  0  0  0
    8.5463   -9.9256    0.0000 C   0  0  0  0  0  0  0  0  0  0  0  0
    9.2555   -8.6896    0.0000 C   0  0  0  0  0  0  0  0  0  0  0  0
    6.4227   -9.5108    0.0000 C   0  0  0  0  0  0  0  0  0  0  0  0
    9.9689   -9.9256    0.0000 Cl  0  0  0  0  0  0  0  0  0  0  0  0
    5.7093   -8.2790    0.0000 N   0  0  0  0  0  0  0  0  0  0  0  0
    5.0000   -9.5108    0.0000 C   0  0  0  0  0  0  0  0  0  0  0  0
    5.0000   -8.6896    0.0000 C   0  0  0  0  0  0  0  0  0  0  0  0
    7.8413   -7.0531    0.0000 C   0  0  0  0  0  0  0  0  0  0  0  0
    7.8416   -6.2326    0.0000 C   0  0  0  0  0  0  0  0  0  0  0  0
    7.1299   -5.8212    0.0000 C   0  0  0  0  0  0  0  0  0  0  0  0
    6.4163   -6.2362    0.0000 C   0  0  0  0  0  0  0  0  0  0  0  0
    6.4195   -7.0554    0.0000 C   0  0  0  0  0  0  0  0  0  0  0  0
    7.1288   -5.0000    0.0000 Cl  0  0  0  0  0  0  0  0  0  0  0  0
    7.1352   -9.9192    0.0000 N   0  0  0  0  0  0  0  0  0  0  0  0
 11  7  2  0  0  0  0
 12  3  1  0  0  0  0
 13  9  1  0  0  0  0
 14  3  2  0  0  0  0
 15 16  2  0  0  0  0
 16 14  1  0  0  0  0
  9 10  2  0  0  0  0
  5 15  1  0  0  0  0
  2  1  1  0  0  0  0
  3  1  1  0  0  0  0
  4  1  1  0  0  0  0
  2 17  2  0  0  0  0
  5 12  2  0  0  0  0
 17 18  1  0  0  0  0
  6  4  2  0  0  0  0
 18 19  2  0  0  0  0
  7  4  1  0  0  0  0
 19 20  1  0  0  0  0
  8  1  1  0  0  0  0
 20 21  2  0  0  0  0
 21  2  1  0  0  0  0
  9 11  1  0  0  0  0
 19 22  1  0  0  0  0
 10  6  1  0  0  0  0
 12 23  1  0  0  0  0
M  END
> <Molecule Name>
DNDI1294208

> <CDD Number>
CDD-1535198

> <IC50_uM>
> 10.0 (n=1)

$$$$

SketchEl molfile

 22 24  0  0  0  0  0  0  0  0999 V2000
    7.0001   -8.2803    0.0000 C   0  0  0  0  0  0  0  0  0  0  0  0
    7.0001   -7.4598    0.0000 C   0  0  0  0  0  0  0  0  0  0  0  0
    7.7130   -8.6905    0.0000 C   0  0  0  0  0  0  0  0  0  0  0  0
    7.7088   -9.5110    0.0000 C   0  0  0  0  0  0  0  0  0  0  0  0
    8.3926   -8.2471    0.0000 C   0  0  0  0  0  0  0  0  0  0  0  0
    7.7627   -7.8161    0.0000 O   0  0  0  0  0  0  0  0  0  0  0  0
    9.1303   -9.5110    0.0000 C   0  0  0  0  0  0  0  0  0  0  0  0
    8.4174   -9.9213    0.0000 C   0  0  0  0  0  0  0  0  0  0  0  0
    9.1261   -8.6864    0.0000 C   0  0  0  0  0  0  0  0  0  0  0  0
    9.8389   -9.9213    0.0000 Cl  0  0  0  0  0  0  0  0  0  0  0  0
    7.7131   -7.0514    0.0000 C   0  0  0  0  0  0  0  0  0  0  0  0
    7.7134   -6.2316    0.0000 C   0  0  0  0  0  0  0  0  0  0  0  0
    7.0023   -5.8205    0.0000 C   0  0  0  0  0  0  0  0  0  0  0  0
    6.2893   -6.2352    0.0000 C   0  0  0  0  0  0  0  0  0  0  0  0
    6.2925   -7.0536    0.0000 C   0  0  0  0  0  0  0  0  0  0  0  0
    7.0012   -5.0000    0.0000 Cl  0  0  0  0  0  0  0  0  0  0  0  0
    6.2943   -8.6986    0.0000 C   0  0  0  0  0  0  0  0  0  0  0  0
    5.5421   -8.3787    0.0000 C   0  0  0  0  0  0  0  0  0  0  0  0
    5.0000   -8.9947    0.0000 C   0  0  0  0  0  0  0  0  0  0  0  0
    5.4184   -9.7007    0.0000 C   0  0  0  0  0  0  0  0  0  0  0  0
    6.2190   -9.5207    0.0000 N   0  0  0  0  0  0  0  0  0  0  0  0
    6.8388  -10.0649    0.0000 C   0  0  0  0  0  0  0  0  0  0  0  0
  2 11  2  0  0  0  0
 11 12  1  0  0  0  0
  4  3  2  0  0  0  0
 12 13  2  0  0  0  0
  5  3  1  0  0  0  0
 13 14  1  0  0  0  0
  6  1  1  0  0  0  0
 14 15  2  0  0  0  0
 15  2  1  0  0  0  0
  7  9  1  0  0  0  0
 13 16  1  0  0  0  0
  8  4  1  0  0  0  0
  1 17  1  0  0  0  0
 17 18  2  0  0  0  0
  9  5  2  0  0  0  0
 10  7  1  0  0  0  0
  7  8  2  0  0  0  0
  2  1  1  0  0  0  0
 18 19  1  0  0  0  0
 19 20  2  0  0  0  0
 20 21  1  0  0  0  0
 21 17  1  0  0  0  0
  3  1  1  0  0  0  0
 21 22  1  0  0  0  0
M  END
> <Molecule Name>
DNDI1294209

> <CDD Number>
CDD-1535199

> <IC50_uM>
> 10.0 (n=1)

$$$$

SketchEl molfile

 27 30  0  0  0  0  0  0  0  0999 V2000
    9.4529   -8.2850    0.0000 C   0  0  0  0  0  0  0  0  0  0  0  0
    9.4529   -7.4633    0.0000 C   0  0  0  0  0  0  0  0  0  0  0  0
   10.1667   -8.6959    0.0000 C   0  0  0  0  0  0  0  0  0  0  0  0
   10.1626   -9.5176    0.0000 C   0  0  0  0  0  0  0  0  0  0  0  0
   10.8473   -8.2518    0.0000 C   0  0  0  0  0  0  0  0  0  0  0  0
   10.2165   -7.8202    0.0000 O   0  0  0  0  0  0  0  0  0  0  0  0
   11.5860   -9.5176    0.0000 C   0  0  0  0  0  0  0  0  0  0  0  0
   10.8722   -9.9284    0.0000 C   0  0  0  0  0  0  0  0  0  0  0  0
   11.5819   -8.6917    0.0000 C   0  0  0  0  0  0  0  0  0  0  0  0
   12.2957   -9.9284    0.0000 Cl  0  0  0  0  0  0  0  0  0  0  0  0
   10.1668   -7.0543    0.0000 C   0  0  0  0  0  0  0  0  0  0  0  0
   10.1672   -6.2334    0.0000 C   0  0  0  0  0  0  0  0  0  0  0  0
    9.4550   -5.8217    0.0000 C   0  0  0  0  0  0  0  0  0  0  0  0
    8.7411   -6.2370    0.0000 C   0  0  0  0  0  0  0  0  0  0  0  0
    8.7442   -7.0565    0.0000 C   0  0  0  0  0  0  0  0  0  0  0  0
    9.4539   -5.0000    0.0000 Cl  0  0  0  0  0  0  0  0  0  0  0  0
    8.7460   -8.7040    0.0000 C   0  0  0  0  0  0  0  0  0  0  0  0
    7.9927   -8.3836    0.0000 C   0  0  0  0  0  0  0  0  0  0  0  0
    7.4499   -9.0005    0.0000 C   0  0  0  0  0  0  0  0  0  0  0  0
    7.8689   -9.7074    0.0000 O   0  0  0  0  0  0  0  0  0  0  0  0
    8.6706   -9.5272    0.0000 N   0  0  0  0  0  0  0  0  0  0  0  0
    6.6318   -8.9239    0.0000 C   0  0  0  0  0  0  0  0  0  0  0  0
    6.2936   -8.1782    0.0000 C   0  0  0  0  0  0  0  0  0  0  0  0
    5.4762   -8.1014    0.0000 C   0  0  0  0  0  0  0  0  0  0  0  0
    5.0000   -8.7721    0.0000 C   0  0  0  0  0  0  0  0  0  0  0  0
    5.3470   -9.5217    0.0000 C   0  0  0  0  0  0  0  0  0  0  0  0
    6.1633   -9.5949    0.0000 C   0  0  0  0  0  0  0  0  0  0  0  0
  5  3  1  0  0  0  0
 13 14  1  0  0  0  0
  6  1  1  0  0  0  0
 14 15  2  0  0  0  0
 15  2  1  0  0  0  0
  7  9  1  0  0  0  0
 13 16  1  0  0  0  0
  8  4  1  0  0  0  0
  1 17  1  0  0  0  0
 17 18  1  0  0  0  0
  9  5  2  0  0  0  0
 10  7  1  0  0  0  0
  7  8  2  0  0  0  0
  2  1  1  0  0  0  0
 18 19  2  0  0  0  0
 19 20  1  0  0  0  0
 20 21  1  0  0  0  0
 21 17  2  0  0  0  0
  3  1  1  0  0  0  0
 19 22  1  0  0  0  0
 22 23  2  0  0  0  0
  2 11  2  0  0  0  0
 23 24  1  0  0  0  0
 11 12  1  0  0  0  0
 24 25  2  0  0  0  0
  4  3  2  0  0  0  0
 25 26  1  0  0  0  0
 12 13  2  0  0  0  0
 26 27  2  0  0  0  0
 27 22  1  0  0  0  0
M  END
> <Molecule Name>
DNDI1294210

> <CDD Number>
CDD-1535200

> <IC50_uM>
> 10.0 (n=1)

$$$$

SketchEl molfile

 25 27  0  0  0  0  0  0  0  0999 V2000
    9.2449   -7.4622    0.0000 C   0  0  0  0  0  0  0  0  0  0  0  0
    9.2449   -6.6409    0.0000 C   0  0  0  0  0  0  0  0  0  0  0  0
    9.9584   -7.8729    0.0000 C   0  0  0  0  0  0  0  0  0  0  0  0
    9.9542   -8.6942    0.0000 C   0  0  0  0  0  0  0  0  0  0  0  0
   10.6387   -7.4290    0.0000 C   0  0  0  0  0  0  0  0  0  0  0  0
   10.0082   -6.9976    0.0000 O   0  0  0  0  0  0  0  0  0  0  0  0
   11.3771   -8.6942    0.0000 C   0  0  0  0  0  0  0  0  0  0  0  0
   10.6636   -9.1049    0.0000 C   0  0  0  0  0  0  0  0  0  0  0  0
   11.3729   -7.8687    0.0000 C   0  0  0  0  0  0  0  0  0  0  0  0
   12.0864   -9.1049    0.0000 Cl  0  0  0  0  0  0  0  0  0  0  0  0
    9.9585   -6.2321    0.0000 C   0  0  0  0  0  0  0  0  0  0  0  0
    9.9589   -5.4115    0.0000 N   0  0  0  0  0  0  0  0  0  0  0  0
    9.2470   -5.0000    0.0000 C   0  0  0  0  0  0  0  0  0  0  0  0
    8.5334   -5.4151    0.0000 C   0  0  0  0  0  0  0  0  0  0  0  0
    8.5365   -6.2343    0.0000 C   0  0  0  0  0  0  0  0  0  0  0  0
    8.5384   -7.8810    0.0000 C   0  0  0  0  0  0  0  0  0  0  0  0
    7.8256   -7.4787    0.0000 C   0  0  0  0  0  0  0  0  0  0  0  0
    7.1195   -7.8968    0.0000 C   0  0  0  0  0  0  0  0  0  0  0  0
    7.1285   -8.7189    0.0000 C   0  0  0  0  0  0  0  0  0  0  0  0
    7.8494   -9.1212    0.0000 C   0  0  0  0  0  0  0  0  0  0  0  0
    8.5525   -8.7008    0.0000 C   0  0  0  0  0  0  0  0  0  0  0  0
    6.4225   -9.1386    0.0000 O   0  0  0  0  0  0  0  0  0  0  0  0
    5.7060   -8.7371    0.0000 C   0  0  0  0  0  0  0  0  0  0  0  0
    5.0000   -9.1568    0.0000 C   0  0  0  0  0  0  0  0  0  0  0  0
    5.6955   -7.9158    0.0000 C   0  0  0  0  0  0  0  0  0  0  0  0
  7  8  2  0  0  0  0
  2  1  1  0  0  0  0
  3  1  1  0  0  0  0
  2 11  2  0  0  0  0
 11 12  1  0  0  0  0
  4  3  2  0  0  0  0
 12 13  2  0  0  0  0
  1 16  1  0  0  0  0
  5  3  1  0  0  0  0
 16 17  2  0  0  0  0
 13 14  1  0  0  0  0
 17 18  1  0  0  0  0
  6  1  1  0  0  0  0
 18 19  2  0  0  0  0
 14 15  2  0  0  0  0
 19 20  1  0  0  0  0
 15  2  1  0  0  0  0
 20 21  2  0  0  0  0
 21 16  1  0  0  0  0
  7  9  1  0  0  0  0
 19 22  1  0  0  0  0
  8  4  1  0  0  0  0
 22 23  1  0  0  0  0
  9  5  2  0  0  0  0
 23 24  1  0  0  0  0
 10  7  1  0  0  0  0
 23 25  1  0  0  0  0
M  END
> <Molecule Name>
DNDI1294211

> <CDD Number>
CDD-1535201

> <IC50_uM>
0.00404969134626332 ร/รท 2.71208702187782 (n=2)

$$$$

SketchEl molfile

 22 24  0  0  0  0  0  0  0  0999 V2000
    7.1242   -7.4608    0.0000 C   0  0  0  0  0  0  0  0  0  0  0  0
    7.1242   -6.6399    0.0000 C   0  0  0  0  0  0  0  0  0  0  0  0
    7.8373   -7.8713    0.0000 C   0  0  0  0  0  0  0  0  0  0  0  0
    7.8331   -8.6921    0.0000 C   0  0  0  0  0  0  0  0  0  0  0  0
    8.5172   -7.4277    0.0000 C   0  0  0  0  0  0  0  0  0  0  0  0
    7.8870   -6.9965    0.0000 O   0  0  0  0  0  0  0  0  0  0  0  0
    9.2552   -8.6921    0.0000 C   0  0  0  0  0  0  0  0  0  0  0  0
    8.5421   -9.1026    0.0000 C   0  0  0  0  0  0  0  0  0  0  0  0
    9.2510   -7.8671    0.0000 C   0  0  0  0  0  0  0  0  0  0  0  0
    9.9641   -9.1026    0.0000 Cl  0  0  0  0  0  0  0  0  0  0  0  0
    7.8374   -6.2314    0.0000 C   0  0  0  0  0  0  0  0  0  0  0  0
    7.8378   -5.4113    0.0000 N   0  0  0  0  0  0  0  0  0  0  0  0
    7.1263   -5.0000    0.0000 C   0  0  0  0  0  0  0  0  0  0  0  0
    6.4131   -5.4148    0.0000 C   0  0  0  0  0  0  0  0  0  0  0  0
    6.4162   -6.2336    0.0000 C   0  0  0  0  0  0  0  0  0  0  0  0
    6.4180   -7.8794    0.0000 C   0  0  0  0  0  0  0  0  0  0  0  0
    5.7057   -7.4773    0.0000 C   0  0  0  0  0  0  0  0  0  0  0  0
    5.0000   -7.8951    0.0000 C   0  0  0  0  0  0  0  0  0  0  0  0
    5.0089   -8.7168    0.0000 C   0  0  0  0  0  0  0  0  0  0  0  0
    5.7295   -9.1189    0.0000 C   0  0  0  0  0  0  0  0  0  0  0  0
    6.4322   -8.6987    0.0000 C   0  0  0  0  0  0  0  0  0  0  0  0
    7.1497   -9.0975    0.0000 F   0  0  0  0  0  0  0  0  0  0  0  0
  7  8  2  0  0  0  0
  2  1  1  0  0  0  0
  3  1  1  0  0  0  0
  2 11  2  0  0  0  0
 11 12  1  0  0  0  0
  4  3  2  0  0  0  0
 12 13  2  0  0  0  0
  1 16  1  0  0  0  0
  5  3  1  0  0  0  0
 16 17  2  0  0  0  0
 13 14  1  0  0  0  0
 17 18  1  0  0  0  0
  6  1  1  0  0  0  0
 18 19  2  0  0  0  0
 14 15  2  0  0  0  0
 19 20  1  0  0  0  0
 15  2  1  0  0  0  0
 20 21  2  0  0  0  0
 21 16  1  0  0  0  0
  7  9  1  0  0  0  0
  8  4  1  0  0  0  0
  9  5  2  0  0  0  0
 10  7  1  0  0  0  0
 21 22  1  0  0  0  0
M  END
> <Molecule Name>
DNDI1294212

> <CDD Number>
CDD-1535202

> <IC50_uM>
0.0433497404836523 ร/รท 1.36435139138448 (n=2)

$$$$

SketchEl molfile

 22 24  0  0  0  0  0  0  0  0999 V2000
    7.8489   -7.4609    0.0000 C   0  0  0  0  0  0  0  0  0  0  0  0
    7.8489   -6.6400    0.0000 C   0  0  0  0  0  0  0  0  0  0  0  0
    8.5620   -7.8714    0.0000 C   0  0  0  0  0  0  0  0  0  0  0  0
    8.5578   -8.6923    0.0000 C   0  0  0  0  0  0  0  0  0  0  0  0
    9.2419   -7.4277    0.0000 C   0  0  0  0  0  0  0  0  0  0  0  0
    8.6117   -6.9966    0.0000 O   0  0  0  0  0  0  0  0  0  0  0  0
    9.9799   -8.6923    0.0000 C   0  0  0  0  0  0  0  0  0  0  0  0
    9.2668   -9.1027    0.0000 C   0  0  0  0  0  0  0  0  0  0  0  0
    9.9757   -7.8672    0.0000 C   0  0  0  0  0  0  0  0  0  0  0  0
   10.6888   -9.1027    0.0000 Cl  0  0  0  0  0  0  0  0  0  0  0  0
    8.5621   -6.2314    0.0000 C   0  0  0  0  0  0  0  0  0  0  0  0
    8.5625   -5.4113    0.0000 N   0  0  0  0  0  0  0  0  0  0  0  0
    7.8510   -5.0000    0.0000 C   0  0  0  0  0  0  0  0  0  0  0  0
    7.1377   -5.4149    0.0000 N   0  0  0  0  0  0  0  0  0  0  0  0
    7.1409   -6.2337    0.0000 C   0  0  0  0  0  0  0  0  0  0  0  0
    7.1427   -7.8795    0.0000 C   0  0  0  0  0  0  0  0  0  0  0  0
    6.4271   -7.4772    0.0000 C   0  0  0  0  0  0  0  0  0  0  0  0
    6.4201   -6.6595    0.0000 C   0  0  0  0  0  0  0  0  0  0  0  0
    5.7086   -6.2573    0.0000 C   0  0  0  0  0  0  0  0  0  0  0  0
    5.0000   -6.6724    0.0000 C   0  0  0  0  0  0  0  0  0  0  0  0
    5.0074   -7.4942    0.0000 C   0  0  0  0  0  0  0  0  0  0  0  0
    5.7235   -7.9009    0.0000 C   0  0  0  0  0  0  0  0  0  0  0  0
 12 13  2  0  0  0  0
  5  3  1  0  0  0  0
 13 14  1  0  0  0  0
  6  1  1  0  0  0  0
 14 15  2  0  0  0  0
 15  2  1  0  0  0  0
  7  9  1  0  0  0  0
  8  4  1  0  0  0  0
  9  5  2  0  0  0  0
 10  7  1  0  0  0  0
  1 16  1  0  0  0  0
  7  8  2  0  0  0  0
 16 17  1  0  0  0  0
 17 18  1  0  0  0  0
  2  1  1  0  0  0  0
  3  1  1  0  0  0  0
  2 11  2  0  0  0  0
 11 12  1  0  0  0  0
  4  3  2  0  0  0  0
 17 22  1  0  0  0  0
 18 19  1  0  0  0  0
 19 20  1  0  0  0  0
 20 21  1  0  0  0  0
 21 22  1  0  0  0  0
M  END
> <Molecule Name>
DNDI1296946

> <CDD Number>
CDD-1535203

> <IC50_uM>
0.154 (n=1)

$$$$

SketchEl molfile

 22 24  0  0  0  0  0  0  0  0999 V2000
    7.0006   -8.2811    0.0000 C   0  0  0  0  0  0  0  0  0  0  0  0
    7.0006   -7.4604    0.0000 C   0  0  0  0  0  0  0  0  0  0  0  0
    7.7135   -8.6914    0.0000 C   0  0  0  0  0  0  0  0  0  0  0  0
    7.7094   -9.5121    0.0000 C   0  0  0  0  0  0  0  0  0  0  0  0
    8.3933   -8.2479    0.0000 C   0  0  0  0  0  0  0  0  0  0  0  0
    7.7633   -7.8168    0.0000 O   0  0  0  0  0  0  0  0  0  0  0  0
    9.1311   -9.5121    0.0000 C   0  0  0  0  0  0  0  0  0  0  0  0
    8.4182   -9.9225    0.0000 C   0  0  0  0  0  0  0  0  0  0  0  0
    9.1270   -8.6873    0.0000 C   0  0  0  0  0  0  0  0  0  0  0  0
    9.8399   -9.9225    0.0000 Cl  0  0  0  0  0  0  0  0  0  0  0  0
    7.7137   -7.0519    0.0000 C   0  0  0  0  0  0  0  0  0  0  0  0
    7.7140   -6.2319    0.0000 C   0  0  0  0  0  0  0  0  0  0  0  0
    7.0027   -5.8207    0.0000 C   0  0  0  0  0  0  0  0  0  0  0  0
    6.2896   -6.2355    0.0000 C   0  0  0  0  0  0  0  0  0  0  0  0
    6.2927   -7.0541    0.0000 C   0  0  0  0  0  0  0  0  0  0  0  0
    6.2946   -8.6995    0.0000 C   0  0  0  0  0  0  0  0  0  0  0  0
    5.5422   -8.3795    0.0000 C   0  0  0  0  0  0  0  0  0  0  0  0
    5.0000   -8.9957    0.0000 C   0  0  0  0  0  0  0  0  0  0  0  0
    5.4185   -9.7018    0.0000 C   0  0  0  0  0  0  0  0  0  0  0  0
    6.2192   -9.5218    0.0000 S   0  0  0  0  0  0  0  0  0  0  0  0
    7.0016   -5.0000    0.0000 Cl  0  0  0  0  0  0  0  0  0  0  0  0
    5.3602   -7.5792    0.0000 C   0  0  0  0  0  0  0  0  0  0  0  0
 15  2  1  0  0  0  0
  7  9  1  0  0  0  0
  8  4  1  0  0  0  0
  9  5  2  0  0  0  0
 10  7  1  0  0  0  0
  1 16  1  0  0  0  0
  7  8  2  0  0  0  0
  2  1  1  0  0  0  0
  3  1  1  0  0  0  0
  2 11  2  0  0  0  0
 11 12  1  0  0  0  0
  4  3  2  0  0  0  0
 16 17  2  0  0  0  0
 12 13  2  0  0  0  0
  5  3  1  0  0  0  0
 13 14  1  0  0  0  0
 17 18  1  0  0  0  0
 18 19  2  0  0  0  0
 19 20  1  0  0  0  0
 20 16  1  0  0  0  0
  6  1  1  0  0  0  0
 13 21  1  0  0  0  0
 14 15  2  0  0  0  0
 17 22  1  0  0  0  0
M  END
> <Molecule Name>
DNDI1296947

> <CDD Number>
CDD-1535204

> <IC50_uM>
> 10.0 (n=1)

$$$$

SketchEl molfile

 22 24  0  0  0  0  0  0  0  0999 V2000
    7.8393   -7.4607    0.0000 C   0  0  0  0  0  0  0  0  0  0  0  0
    7.8393   -6.6399    0.0000 C   0  0  0  0  0  0  0  0  0  0  0  0
    8.5523   -7.8711    0.0000 C   0  0  0  0  0  0  0  0  0  0  0  0
    8.5482   -8.6919    0.0000 C   0  0  0  0  0  0  0  0  0  0  0  0
    9.2322   -7.4275    0.0000 C   0  0  0  0  0  0  0  0  0  0  0  0
    8.6021   -6.9964    0.0000 O   0  0  0  0  0  0  0  0  0  0  0  0
    9.9701   -8.6919    0.0000 C   0  0  0  0  0  0  0  0  0  0  0  0
    9.2571   -9.1023    0.0000 C   0  0  0  0  0  0  0  0  0  0  0  0
    9.9660   -7.8669    0.0000 C   0  0  0  0  0  0  0  0  0  0  0  0
    8.5525   -6.2313    0.0000 C   0  0  0  0  0  0  0  0  0  0  0  0
    8.5528   -5.4113    0.0000 N   0  0  0  0  0  0  0  0  0  0  0  0
    7.8414   -5.0000    0.0000 C   0  0  0  0  0  0  0  0  0  0  0  0
    7.1282   -5.4149    0.0000 C   0  0  0  0  0  0  0  0  0  0  0  0
    7.1314   -6.2335    0.0000 C   0  0  0  0  0  0  0  0  0  0  0  0
    7.1332   -7.8792    0.0000 C   0  0  0  0  0  0  0  0  0  0  0  0
    6.4209   -7.4771    0.0000 C   0  0  0  0  0  0  0  0  0  0  0  0
    5.7153   -7.8949    0.0000 C   0  0  0  0  0  0  0  0  0  0  0  0
    5.7242   -8.7166    0.0000 C   0  0  0  0  0  0  0  0  0  0  0  0
    6.4447   -9.1186    0.0000 C   0  0  0  0  0  0  0  0  0  0  0  0
    7.1474   -8.6985    0.0000 C   0  0  0  0  0  0  0  0  0  0  0  0
   10.6817   -9.1010    0.0000 Cl  0  0  0  0  0  0  0  0  0  0  0  0
    5.0000   -7.4923    0.0000 Br  0  0  0  0  0  0  0  0  0  0  0  0
 12 13  1  0  0  0  0
  6  1  1  0  0  0  0
 13 14  2  0  0  0  0
  1 15  1  0  0  0  0
 14  2  1  0  0  0  0
 15 16  2  0  0  0  0
  7  9  1  0  0  0  0
 16 17  1  0  0  0  0
  8  4  1  0  0  0  0
 17 18  2  0  0  0  0
  9  5  2  0  0  0  0
 18 19  1  0  0  0  0
 19 20  2  0  0  0  0
 20 15  1  0  0  0  0
  7  8  2  0  0  0  0
  2  1  1  0  0  0  0
  3  1  1  0  0  0  0
  2 10  2  0  0  0  0
 10 11  1  0  0  0  0
  7 21  1  0  0  0  0
  4  3  2  0  0  0  0
 11 12  2  0  0  0  0
  5  3  1  0  0  0  0
 17 22  1  0  0  0  0
M  END
> <Molecule Name>
DNDI1300737

> <CDD Number>
CDD-1535205

> <IC50_uM>
0.054 (n=1)

$$$$

SketchEl molfile

 28 30  0  0  0  0  0  0  0  0999 V2000
    7.8235   -7.4632    0.0000 C   0  0  0  0  0  0  0  0  0  0  0  0
    7.8235   -6.6415    0.0000 C   0  0  0  0  0  0  0  0  0  0  0  0
    8.5372   -7.8740    0.0000 C   0  0  0  0  0  0  0  0  0  0  0  0
    8.5331   -8.6956    0.0000 C   0  0  0  0  0  0  0  0  0  0  0  0
    9.2178   -7.4300    0.0000 C   0  0  0  0  0  0  0  0  0  0  0  0
    8.5870   -6.9984    0.0000 O   0  0  0  0  0  0  0  0  0  0  0  0
    9.9564   -8.6956    0.0000 C   0  0  0  0  0  0  0  0  0  0  0  0
    9.2427   -9.1065    0.0000 C   0  0  0  0  0  0  0  0  0  0  0  0
    9.9523   -7.8698    0.0000 C   0  0  0  0  0  0  0  0  0  0  0  0
    8.5374   -6.2326    0.0000 C   0  0  0  0  0  0  0  0  0  0  0  0
    8.5377   -5.4117    0.0000 N   0  0  0  0  0  0  0  0  0  0  0  0
    7.8256   -5.0000    0.0000 C   0  0  0  0  0  0  0  0  0  0  0  0
    7.1117   -5.4153    0.0000 C   0  0  0  0  0  0  0  0  0  0  0  0
    7.1148   -6.2348    0.0000 C   0  0  0  0  0  0  0  0  0  0  0  0
    7.1167   -7.8821    0.0000 C   0  0  0  0  0  0  0  0  0  0  0  0
    6.4036   -7.4796    0.0000 C   0  0  0  0  0  0  0  0  0  0  0  0
    5.6973   -7.8979    0.0000 C   0  0  0  0  0  0  0  0  0  0  0  0
    5.7063   -8.7204    0.0000 C   0  0  0  0  0  0  0  0  0  0  0  0
    6.4275   -9.1228    0.0000 C   0  0  0  0  0  0  0  0  0  0  0  0
    7.1309   -8.7022    0.0000 C   0  0  0  0  0  0  0  0  0  0  0  0
   10.6688   -9.1051    0.0000 C   0  0  0  0  0  0  0  0  0  0  0  0
   10.6703   -9.9268    0.0000 F   0  0  0  0  0  0  0  0  0  0  0  0
   11.3796   -8.6930    0.0000 F   0  0  0  0  0  0  0  0  0  0  0  0
   10.0889   -9.6872    0.0000 F   0  0  0  0  0  0  0  0  0  0  0  0
    5.0000   -9.1402    0.0000 C   0  0  0  0  0  0  0  0  0  0  0  0
    4.2832   -8.7385    0.0000 F   0  0  0  0  0  0  0  0  0  0  0  0
    5.0105   -9.9618    0.0000 F   0  0  0  0  0  0  0  0  0  0  0  0
    4.7772   -8.3494    0.0000 F   0  0  0  0  0  0  0  0  0  0  0  0
  7 21  1  0  0  0  0
 21 22  1  0  0  0  0
 21 23  1  0  0  0  0
 21 24  1  0  0  0  0
 18 25  1  0  0  0  0
 25 26  1  0  0  0  0
 25 27  1  0  0  0  0
 25 28  1  0  0  0  0
 12 13  1  0  0  0  0
  6  1  1  0  0  0  0
 13 14  2  0  0  0  0
  1 15  1  0  0  0  0
 14  2  1  0  0  0  0
 15 16  2  0  0  0  0
  7  9  1  0  0  0  0
 16 17  1  0  0  0  0
  8  4  1  0  0  0  0
 17 18  2  0  0  0  0
  9  5  2  0  0  0  0
 18 19  1  0  0  0  0
 19 20  2  0  0  0  0
 20 15  1  0  0  0  0
  7  8  2  0  0  0  0
  2  1  1  0  0  0  0
  3  1  1  0  0  0  0
  2 10  2  0  0  0  0
 10 11  1  0  0  0  0
  4  3  2  0  0  0  0
 11 12  2  0  0  0  0
  5  3  1  0  0  0  0
M  END
> <Molecule Name>
DNDI1300738

> <CDD Number>
CDD-1535206

> <IC50_uM>
0.0149 (n=1)

$$$$

SketchEl molfile

 22 24  0  0  0  0  0  0  0  0999 V2000
    7.1240   -7.4607    0.0000 C   0  0  0  0  0  0  0  0  0  0  0  0
    7.1240   -6.6399    0.0000 C   0  0  0  0  0  0  0  0  0  0  0  0
    7.8370   -7.8711    0.0000 C   0  0  0  0  0  0  0  0  0  0  0  0
    7.8329   -8.6919    0.0000 C   0  0  0  0  0  0  0  0  0  0  0  0
    8.5169   -7.4275    0.0000 C   0  0  0  0  0  0  0  0  0  0  0  0
    7.8868   -6.9964    0.0000 O   0  0  0  0  0  0  0  0  0  0  0  0
    9.2548   -8.6919    0.0000 C   0  0  0  0  0  0  0  0  0  0  0  0
    8.5418   -9.1023    0.0000 C   0  0  0  0  0  0  0  0  0  0  0  0
    9.2507   -7.8669    0.0000 C   0  0  0  0  0  0  0  0  0  0  0  0
    7.8372   -6.2313    0.0000 C   0  0  0  0  0  0  0  0  0  0  0  0
    7.8375   -5.4113    0.0000 C   0  0  0  0  0  0  0  0  0  0  0  0
    7.1261   -5.0000    0.0000 N   0  0  0  0  0  0  0  0  0  0  0  0
    6.4129   -5.4149    0.0000 C   0  0  0  0  0  0  0  0  0  0  0  0
    6.4161   -6.2335    0.0000 N   0  0  0  0  0  0  0  0  0  0  0  0
    6.4179   -7.8792    0.0000 C   0  0  0  0  0  0  0  0  0  0  0  0
    5.7056   -7.4771    0.0000 C   0  0  0  0  0  0  0  0  0  0  0  0
    5.0000   -7.8949    0.0000 C   0  0  0  0  0  0  0  0  0  0  0  0
    5.0089   -8.7166    0.0000 C   0  0  0  0  0  0  0  0  0  0  0  0
    5.7294   -9.1186    0.0000 C   0  0  0  0  0  0  0  0  0  0  0  0
    6.4321   -8.6985    0.0000 C   0  0  0  0  0  0  0  0  0  0  0  0
    7.1495   -9.0972    0.0000 Cl  0  0  0  0  0  0  0  0  0  0  0  0
    9.9664   -9.1010    0.0000 Cl  0  0  0  0  0  0  0  0  0  0  0  0
  6  1  1  0  0  0  0
 13 14  2  0  0  0  0
  1 15  1  0  0  0  0
 14  2  1  0  0  0  0
 15 16  2  0  0  0  0
  7  9  1  0  0  0  0
 16 17  1  0  0  0  0
  8  4  1  0  0  0  0
 17 18  2  0  0  0  0
  9  5  2  0  0  0  0
 18 19  1  0  0  0  0
 19 20  2  0  0  0  0
 20 15  1  0  0  0  0
  7  8  2  0  0  0  0
  2  1  1  0  0  0  0
  3  1  1  0  0  0  0
  2 10  2  0  0  0  0
 10 11  1  0  0  0  0
  4  3  2  0  0  0  0
 11 12  2  0  0  0  0
  5  3  1  0  0  0  0
 20 21  1  0  0  0  0
 12 13  1  0  0  0  0
  7 22  1  0  0  0  0
M  END
> <Molecule Name>
DNDI1300739

> <CDD Number>
CDD-1535207

> <IC50_uM>
7.05 (n=1)

$$$$

SketchEl molfile

 19 20  0  0  0  0  0  0  0  0999 V2000
    7.1246   -7.4613    0.0000 C   0  0  0  0  0  0  0  0  0  0  0  0
    7.1246   -6.6403    0.0000 C   0  0  0  0  0  0  0  0  0  0  0  0
    7.8378   -7.8719    0.0000 C   0  0  0  0  0  0  0  0  0  0  0  0
    7.8876   -6.9969    0.0000 O   0  0  0  0  0  0  0  0  0  0  0  0
    7.8380   -6.2316    0.0000 C   0  0  0  0  0  0  0  0  0  0  0  0
    7.8383   -5.4114    0.0000 N   0  0  0  0  0  0  0  0  0  0  0  0
    7.1267   -5.0000    0.0000 C   0  0  0  0  0  0  0  0  0  0  0  0
    6.4133   -5.4150    0.0000 C   0  0  0  0  0  0  0  0  0  0  0  0
    6.4165   -6.2339    0.0000 N   0  0  0  0  0  0  0  0  0  0  0  0
    6.4183   -7.8800    0.0000 C   0  0  0  0  0  0  0  0  0  0  0  0
    5.7058   -7.4778    0.0000 C   0  0  0  0  0  0  0  0  0  0  0  0
    5.0000   -7.8957    0.0000 C   0  0  0  0  0  0  0  0  0  0  0  0
    7.8361   -8.6959    0.0000 C   0  0  0  0  0  0  0  0  0  0  0  0
    8.5485   -9.1063    0.0000 C   0  0  0  0  0  0  0  0  0  0  0  0
    9.2616   -8.6938    0.0000 C   0  0  0  0  0  0  0  0  0  0  0  0
    9.2579   -7.8667    0.0000 C   0  0  0  0  0  0  0  0  0  0  0  0
    8.5449   -7.4599    0.0000 C   0  0  0  0  0  0  0  0  0  0  0  0
    9.9738   -9.1025    0.0000 Cl  0  0  0  0  0  0  0  0  0  0  0  0
    5.6973   -6.6568    0.0000 C   0  0  0  0  0  0  0  0  0  0  0  0
  2  1  1  0  0  0  0
  3  1  1  0  0  0  0
  2  5  2  0  0  0  0
  5  6  1  0  0  0  0
  6  7  2  0  0  0  0
  7  8  1  0  0  0  0
  3 13  2  0  0  0  0
  4  1  1  0  0  0  0
 13 14  1  0  0  0  0
  8  9  2  0  0  0  0
 14 15  2  0  0  0  0
  1 10  1  0  0  0  0
 15 16  1  0  0  0  0
  9  2  1  0  0  0  0
 16 17  2  0  0  0  0
 17  3  1  0  0  0  0
 10 11  1  0  0  0  0
 15 18  1  0  0  0  0
 11 12  1  0  0  0  0
 11 19  1  0  0  0  0
M  END
> <Molecule Name>
DNDI1300740

> <CDD Number>
CDD-1535208

> <IC50_uM>
0.139 (n=1)

$$$$

SketchEl molfile

 31 34  0  0  0  0  0  0  0  0999 V2000
    7.5451   -6.6543    0.0000 C   0  0  0  0  0  0  0  0  0  0  0  0
    7.5435   -7.4830    0.0000 C   0  0  0  0  0  0  0  0  0  0  0  0
    8.2575   -7.8963    0.0000 C   0  0  0  0  0  0  0  0  0  0  0  0
    8.9738   -7.4824    0.0000 C   0  0  0  0  0  0  0  0  0  0  0  0
    8.9699   -6.6493    0.0000 C   0  0  0  0  0  0  0  0  0  0  0  0
    8.2550   -6.2412    0.0000 C   0  0  0  0  0  0  0  0  0  0  0  0
    8.2573   -8.7218    0.0000 C   0  0  0  0  0  0  0  0  0  0  0  0
    7.5422   -9.1343    0.0000 C   0  0  0  0  0  0  0  0  0  0  0  0
    8.9720   -9.1348    0.0000 C   0  0  0  0  0  0  0  0  0  0  0  0
    8.9666   -9.9585    0.0000 C   0  0  0  0  0  0  0  0  0  0  0  0
    9.6805  -10.3714    0.0000 C   0  0  0  0  0  0  0  0  0  0  0  0
   10.3966   -9.9589    0.0000 C   0  0  0  0  0  0  0  0  0  0  0  0
   10.3942   -9.1291    0.0000 C   0  0  0  0  0  0  0  0  0  0  0  0
    9.6797   -8.7199    0.0000 C   0  0  0  0  0  0  0  0  0  0  0  0
    8.2517   -5.4157    0.0000 C   0  0  0  0  0  0  0  0  0  0  0  0
   11.1119  -10.3709    0.0000 C   0  0  0  0  0  0  0  0  0  0  0  0
   11.1127  -11.1964    0.0000 F   0  0  0  0  0  0  0  0  0  0  0  0
   11.8264   -9.9574    0.0000 F   0  0  0  0  0  0  0  0  0  0  0  0
   10.5287  -10.9552    0.0000 F   0  0  0  0  0  0  0  0  0  0  0  0
    8.9649   -5.0000    0.0000 F   0  0  0  0  0  0  0  0  0  0  0  0
    7.5351   -5.0058    0.0000 F   0  0  0  0  0  0  0  0  0  0  0  0
    9.0499   -5.6260    0.0000 F   0  0  0  0  0  0  0  0  0  0  0  0
    6.7835   -8.7993    0.0000 C   0  0  0  0  0  0  0  0  0  0  0  0
    7.4510   -9.9562    0.0000 N   0  0  0  0  0  0  0  0  0  0  0  0
    8.9630   -8.2996    0.0000 O   0  0  0  0  0  0  0  0  0  0  0  0
    6.6435  -10.1277    0.0000 C   0  0  0  0  0  0  0  0  0  0  0  0
    6.2323   -9.4146    0.0000 C   0  0  0  0  0  0  0  0  0  0  0  0
    5.4111   -9.4151    0.0000 C   0  0  0  0  0  0  0  0  0  0  0  0
    5.0000  -10.1280    0.0000 C   0  0  0  0  0  0  0  0  0  0  0  0
    5.4162  -10.8418    0.0000 C   0  0  0  0  0  0  0  0  0  0  0  0
    6.2361  -10.8378    0.0000 C   0  0  0  0  0  0  0  0  0  0  0  0
  1  2  2  0  0  0  0
  2  3  1  0  0  0  0
  3  4  2  0  0  0  0
  4  5  1  0  0  0  0
  5  6  2  0  0  0  0
  6  1  1  0  0  0  0
  3  7  1  0  0  0  0
  7  8  1  0  0  0  0
  7  9  1  0  0  0  0
  9 10  2  0  0  0  0
 10 11  1  0  0  0  0
 11 12  2  0  0  0  0
 12 13  1  0  0  0  0
 13 14  2  0  0  0  0
 14  9  1  0  0  0  0
  6 15  1  0  0  0  0
 12 16  1  0  0  0  0
 16 17  1  0  0  0  0
 16 18  1  0  0  0  0
 16 19  1  0  0  0  0
 15 20  1  0  0  0  0
 15 21  1  0  0  0  0
 15 22  1  0  0  0  0
  8 23  2  0  0  0  0
 23 27  1  0  0  0  0
 26 24  1  0  0  0  0
 24  8  1  0  0  0  0
  7 25  1  0  0  0  0
 26 27  2  0  0  0  0
 27 28  1  0  0  0  0
 28 29  2  0  0  0  0
 29 30  1  0  0  0  0
 30 31  2  0  0  0  0
 31 26  1  0  0  0  0
M  END
> <Molecule Name>
DNDI1303288

> <CDD Number>
CDD-1535209

> <IC50_uM>
3.98 (n=1)

$$$$

SketchEl molfile

 21 23  0  0  0  0  0  0  0  0999 V2000
    6.3119   -6.2378    0.0000 C   0  0  0  0  0  0  0  0  0  0  0  0
    6.3103   -7.0660    0.0000 C   0  0  0  0  0  0  0  0  0  0  0  0
    7.0238   -7.4790    0.0000 C   0  0  0  0  0  0  0  0  0  0  0  0
    7.7396   -7.0653    0.0000 C   0  0  0  0  0  0  0  0  0  0  0  0
    7.7357   -6.2328    0.0000 C   0  0  0  0  0  0  0  0  0  0  0  0
    7.0213   -5.8249    0.0000 C   0  0  0  0  0  0  0  0  0  0  0  0
    7.0235   -8.3039    0.0000 C   0  0  0  0  0  0  0  0  0  0  0  0
    6.3090   -8.7161    0.0000 C   0  0  0  0  0  0  0  0  0  0  0  0
    7.7378   -8.7166    0.0000 C   0  0  0  0  0  0  0  0  0  0  0  0
    7.7324   -9.5398    0.0000 C   0  0  0  0  0  0  0  0  0  0  0  0
    8.4458   -9.9524    0.0000 C   0  0  0  0  0  0  0  0  0  0  0  0
    9.1614   -9.5401    0.0000 C   0  0  0  0  0  0  0  0  0  0  0  0
    9.1590   -8.7109    0.0000 C   0  0  0  0  0  0  0  0  0  0  0  0
    8.4450   -8.3020    0.0000 C   0  0  0  0  0  0  0  0  0  0  0  0
    7.0179   -5.0000    0.0000 Cl  0  0  0  0  0  0  0  0  0  0  0  0
    9.8762   -9.9519    0.0000 Cl  0  0  0  0  0  0  0  0  0  0  0  0
    5.5508   -8.3813    0.0000 C   0  0  0  0  0  0  0  0  0  0  0  0
    6.2178   -9.5374    0.0000 O   0  0  0  0  0  0  0  0  0  0  0  0
    7.7288   -7.8820    0.0000 O   0  0  0  0  0  0  0  0  0  0  0  0
    5.4109   -9.7088    0.0000 C   0  0  0  0  0  0  0  0  0  0  0  0
    5.0000   -8.9962    0.0000 C   0  0  0  0  0  0  0  0  0  0  0  0
  1  2  2  0  0  0  0
  2  3  1  0  0  0  0
  3  4  2  0  0  0  0
  4  5  1  0  0  0  0
  5  6  2  0  0  0  0
  6  1  1  0  0  0  0
  3  7  1  0  0  0  0
  7  8  1  0  0  0  0
  7  9  1  0  0  0  0
  9 10  2  0  0  0  0
 10 11  1  0  0  0  0
 11 12  2  0  0  0  0
 12 13  1  0  0  0  0
 13 14  2  0  0  0  0
 14  9  1  0  0  0  0
  6 15  1  0  0  0  0
 12 16  1  0  0  0  0
  8 17  2  0  0  0  0
 17 21  1  0  0  0  0
 20 18  1  0  0  0  0
 18  8  1  0  0  0  0
  7 19  1  0  0  0  0
 20 21  2  0  0  0  0
M  END
> <Molecule Name>
DNDI1303289

> <CDD Number>
CDD-1535210

> <IC50_uM>
> 10.0 (n=1)

$$$$

SketchEl molfile

 25 27  0  0  0  0  0  0  0  0999 V2000
    6.5050   -5.4130    0.0000 C   0  0  0  0  0  0  0  0  0  0  0  0
    6.5034   -6.2414    0.0000 C   0  0  0  0  0  0  0  0  0  0  0  0
    7.2172   -6.6545    0.0000 C   0  0  0  0  0  0  0  0  0  0  0  0
    7.9332   -6.2408    0.0000 C   0  0  0  0  0  0  0  0  0  0  0  0
    7.9293   -5.4080    0.0000 N   0  0  0  0  0  0  0  0  0  0  0  0
    7.2147   -5.0000    0.0000 C   0  0  0  0  0  0  0  0  0  0  0  0
    7.2169   -7.4797    0.0000 C   0  0  0  0  0  0  0  0  0  0  0  0
    6.5021   -7.8921    0.0000 C   0  0  0  0  0  0  0  0  0  0  0  0
    7.9314   -7.8926    0.0000 C   0  0  0  0  0  0  0  0  0  0  0  0
    7.9260   -8.7160    0.0000 C   0  0  0  0  0  0  0  0  0  0  0  0
    8.6397   -9.1287    0.0000 C   0  0  0  0  0  0  0  0  0  0  0  0
    9.3554   -8.7163    0.0000 C   0  0  0  0  0  0  0  0  0  0  0  0
    9.3530   -7.8869    0.0000 C   0  0  0  0  0  0  0  0  0  0  0  0
    8.6388   -7.4778    0.0000 C   0  0  0  0  0  0  0  0  0  0  0  0
   10.0705   -9.1282    0.0000 Cl  0  0  0  0  0  0  0  0  0  0  0  0
    7.9224   -7.0577    0.0000 O   0  0  0  0  0  0  0  0  0  0  0  0
    5.7906   -7.4770    0.0000 C   0  0  0  0  0  0  0  0  0  0  0  0
    5.0763   -7.8887    0.0000 C   0  0  0  0  0  0  0  0  0  0  0  0
    5.0756   -8.7148    0.0000 C   0  0  0  0  0  0  0  0  0  0  0  0
    5.7951   -9.1274    0.0000 C   0  0  0  0  0  0  0  0  0  0  0  0
    6.5065   -8.7134    0.0000 C   0  0  0  0  0  0  0  0  0  0  0  0
    5.7978   -9.9526    0.0000 C   0  0  0  0  0  0  0  0  0  0  0  0
    5.0844  -10.3675    0.0000 F   0  0  0  0  0  0  0  0  0  0  0  0
    6.5137  -10.3629    0.0000 F   0  0  0  0  0  0  0  0  0  0  0  0
    5.0000   -9.7416    0.0000 F   0  0  0  0  0  0  0  0  0  0  0  0
  1  2  2  0  0  0  0
  2  3  1  0  0  0  0
  3  4  2  0  0  0  0
  4  5  1  0  0  0  0
  5  6  2  0  0  0  0
  6  1  1  0  0  0  0
  3  7  1  0  0  0  0
  7  8  1  0  0  0  0
  7  9  1  0  0  0  0
  9 10  2  0  0  0  0
 10 11  1  0  0  0  0
 11 12  2  0  0  0  0
 12 13  1  0  0  0  0
 13 14  2  0  0  0  0
 14  9  1  0  0  0  0
 12 15  1  0  0  0  0
  7 16  1  0  0  0  0
  8 17  2  0  0  0  0
 17 18  1  0  0  0  0
 18 19  2  0  0  0  0
 19 20  1  0  0  0  0
 20 21  2  0  0  0  0
 21  8  1  0  0  0  0
 20 22  1  0  0  0  0
 22 23  1  0  0  0  0
 22 24  1  0  0  0  0
 22 25  1  0  0  0  0
M  END
> <Molecule Name>
DNDI1303290

> <CDD Number>
CDD-1535211

> <IC50_uM>
0.067 (n=1)

$$$$

SketchEl molfile

 21 23  0  0  0  0  0  0  0  0999 V2000
    6.3076   -5.4130    0.0000 C   0  0  0  0  0  0  0  0  0  0  0  0
    6.3060   -6.2414    0.0000 C   0  0  0  0  0  0  0  0  0  0  0  0
    7.0197   -6.6545    0.0000 C   0  0  0  0  0  0  0  0  0  0  0  0
    7.7357   -6.2408    0.0000 C   0  0  0  0  0  0  0  0  0  0  0  0
    7.7318   -5.4080    0.0000 N   0  0  0  0  0  0  0  0  0  0  0  0
    7.0173   -5.0000    0.0000 C   0  0  0  0  0  0  0  0  0  0  0  0
    7.0195   -7.4797    0.0000 C   0  0  0  0  0  0  0  0  0  0  0  0
    6.3047   -7.8921    0.0000 C   0  0  0  0  0  0  0  0  0  0  0  0
    7.7340   -7.8926    0.0000 C   0  0  0  0  0  0  0  0  0  0  0  0
    7.7285   -8.7159    0.0000 C   0  0  0  0  0  0  0  0  0  0  0  0
    8.4422   -9.1287    0.0000 C   0  0  0  0  0  0  0  0  0  0  0  0
    9.1580   -8.7163    0.0000 C   0  0  0  0  0  0  0  0  0  0  0  0
    9.1556   -7.8868    0.0000 C   0  0  0  0  0  0  0  0  0  0  0  0
    8.4413   -7.4778    0.0000 C   0  0  0  0  0  0  0  0  0  0  0  0
    9.8730   -9.1282    0.0000 Cl  0  0  0  0  0  0  0  0  0  0  0  0
    7.7250   -7.0577    0.0000 O   0  0  0  0  0  0  0  0  0  0  0  0
    5.5524   -7.5548    0.0000 C   0  0  0  0  0  0  0  0  0  0  0  0
    5.0000   -8.1679    0.0000 C   0  0  0  0  0  0  0  0  0  0  0  0
    5.4124   -8.8827    0.0000 C   0  0  0  0  0  0  0  0  0  0  0  0
    6.2196   -8.7113    0.0000 S   0  0  0  0  0  0  0  0  0  0  0  0
    5.3820   -6.7474    0.0000 Cl  0  0  0  0  0  0  0  0  0  0  0  0
  1  2  2  0  0  0  0
  2  3  1  0  0  0  0
  3  4  2  0  0  0  0
  4  5  1  0  0  0  0
  5  6  2  0  0  0  0
  6  1  1  0  0  0  0
  3  7  1  0  0  0  0
  7  8  1  0  0  0  0
  7  9  1  0  0  0  0
  9 10  2  0  0  0  0
 10 11  1  0  0  0  0
 11 12  2  0  0  0  0
 12 13  1  0  0  0  0
 13 14  2  0  0  0  0
 14  9  1  0  0  0  0
 12 15  1  0  0  0  0
  7 16  1  0  0  0  0
  8 17  2  0  0  0  0
 17 18  1  0  0  0  0
 18 19  2  0  0  0  0
 19 20  1  0  0  0  0
 20  8  1  0  0  0  0
 17 21  1  0  0  0  0
M  END
> <Molecule Name>
DNDI1303291

> <CDD Number>
CDD-1535212

> <IC50_uM>
0.028 (n=1)

$$$$

SketchEl molfile

 21 23  0  0  0  0  0  0  0  0999 V2000
    7.8157   -7.4601    0.0000 C   0  0  0  0  0  0  0  0  0  0  0  0
    7.8157   -6.6395    0.0000 C   0  0  0  0  0  0  0  0  0  0  0  0
    8.5286   -7.8704    0.0000 C   0  0  0  0  0  0  0  0  0  0  0  0
    8.5244   -8.6911    0.0000 C   0  0  0  0  0  0  0  0  0  0  0  0
    9.2083   -7.4270    0.0000 C   0  0  0  0  0  0  0  0  0  0  0  0
    8.5783   -6.9959    0.0000 O   0  0  0  0  0  0  0  0  0  0  0  0
    9.9460   -8.6911    0.0000 C   0  0  0  0  0  0  0  0  0  0  0  0
    9.2332   -9.1014    0.0000 C   0  0  0  0  0  0  0  0  0  0  0  0
    9.9419   -7.8663    0.0000 C   0  0  0  0  0  0  0  0  0  0  0  0
    8.5287   -6.2310    0.0000 C   0  0  0  0  0  0  0  0  0  0  0  0
    8.5290   -5.4111    0.0000 N   0  0  0  0  0  0  0  0  0  0  0  0
    7.8178   -5.0000    0.0000 C   0  0  0  0  0  0  0  0  0  0  0  0
    7.1047   -5.4147    0.0000 C   0  0  0  0  0  0  0  0  0  0  0  0
    7.1079   -6.2332    0.0000 C   0  0  0  0  0  0  0  0  0  0  0  0
    7.1097   -7.8785    0.0000 C   0  0  0  0  0  0  0  0  0  0  0  0
    6.3592   -7.5544    0.0000 S   0  0  0  0  0  0  0  0  0  0  0  0
    5.8171   -8.1705    0.0000 C   0  0  0  0  0  0  0  0  0  0  0  0
    6.2355   -8.8765    0.0000 C   0  0  0  0  0  0  0  0  0  0  0  0
    7.0362   -8.6966    0.0000 C   0  0  0  0  0  0  0  0  0  0  0  0
   10.6575   -9.1001    0.0000 Cl  0  0  0  0  0  0  0  0  0  0  0  0
    5.0000   -8.0940    0.0000 C   0  0  0  0  0  0  0  0  0  0  0  0
  9  5  2  0  0  0  0
  7  8  2  0  0  0  0
  2  1  1  0  0  0  0
  3  1  1  0  0  0  0
  2 10  2  0  0  0  0
 10 11  1  0  0  0  0
  4  3  2  0  0  0  0
 11 12  2  0  0  0  0
  5  3  1  0  0  0  0
  1 15  1  0  0  0  0
 15 16  1  0  0  0  0
 12 13  1  0  0  0  0
  6  1  1  0  0  0  0
 13 14  2  0  0  0  0
 14  2  1  0  0  0  0
 16 17  1  0  0  0  0
 17 18  2  0  0  0  0
 18 19  1  0  0  0  0
 19 15  2  0  0  0  0
  7  9  1  0  0  0  0
  8  4  1  0  0  0  0
  7 20  1  0  0  0  0
 17 21  1  0  0  0  0
M  END
> <Molecule Name>
DNDI1307368

> <CDD Number>
CDD-1535213

> <IC50_uM>
0.024 (n=1)

$$$$

SketchEl molfile

 22 24  0  0  0  0  0  0  0  0999 V2000
    7.1240   -7.4607    0.0000 C   0  0  0  0  0  0  0  0  0  0  0  0
    7.1240   -6.6399    0.0000 C   0  0  0  0  0  0  0  0  0  0  0  0
    7.8370   -7.8711    0.0000 C   0  0  0  0  0  0  0  0  0  0  0  0
    7.8329   -8.6919    0.0000 C   0  0  0  0  0  0  0  0  0  0  0  0
    8.5169   -7.4275    0.0000 C   0  0  0  0  0  0  0  0  0  0  0  0
    7.8868   -6.9964    0.0000 O   0  0  0  0  0  0  0  0  0  0  0  0
    9.2548   -8.6919    0.0000 C   0  0  0  0  0  0  0  0  0  0  0  0
    8.5418   -9.1023    0.0000 C   0  0  0  0  0  0  0  0  0  0  0  0
    9.2507   -7.8669    0.0000 C   0  0  0  0  0  0  0  0  0  0  0  0
    7.8372   -6.2313    0.0000 C   0  0  0  0  0  0  0  0  0  0  0  0
    7.8375   -5.4113    0.0000 N   0  0  0  0  0  0  0  0  0  0  0  0
    7.1261   -5.0000    0.0000 C   0  0  0  0  0  0  0  0  0  0  0  0
    6.4129   -5.4149    0.0000 C   0  0  0  0  0  0  0  0  0  0  0  0
    6.4161   -6.2335    0.0000 C   0  0  0  0  0  0  0  0  0  0  0  0
    9.9664   -9.1010    0.0000 Cl  0  0  0  0  0  0  0  0  0  0  0  0
    6.4179   -7.8792    0.0000 C   0  0  0  0  0  0  0  0  0  0  0  0
    5.7056   -7.4771    0.0000 C   0  0  0  0  0  0  0  0  0  0  0  0
    5.0000   -7.8949    0.0000 C   0  0  0  0  0  0  0  0  0  0  0  0
    5.0089   -8.7166    0.0000 C   0  0  0  0  0  0  0  0  0  0  0  0
    5.7294   -9.1186    0.0000 C   0  0  0  0  0  0  0  0  0  0  0  0
    6.4321   -8.6985    0.0000 C   0  0  0  0  0  0  0  0  0  0  0  0
    7.1495   -9.0972    0.0000 Br  0  0  0  0  0  0  0  0  0  0  0  0
  4  3  2  0  0  0  0
 11 12  2  0  0  0  0
  5  3  1  0  0  0  0
 12 13  1  0  0  0  0
  6  1  1  0  0  0  0
 13 14  2  0  0  0  0
 14  2  1  0  0  0  0
  7  9  1  0  0  0  0
  8  4  1  0  0  0  0
  7 15  1  0  0  0  0
  1 16  1  0  0  0  0
  9  5  2  0  0  0  0
 16 17  2  0  0  0  0
  7  8  2  0  0  0  0
 17 18  1  0  0  0  0
  2  1  1  0  0  0  0
 18 19  2  0  0  0  0
  3  1  1  0  0  0  0
 19 20  1  0  0  0  0
  2 10  2  0  0  0  0
 20 21  2  0  0  0  0
 21 16  1  0  0  0  0
 10 11  1  0  0  0  0
 21 22  1  0  0  0  0
M  END
> <Molecule Name>
DNDI1307369

> <CDD Number>
CDD-1535214

> <IC50_uM>
0.076 (n=1)

$$$$

SketchEl molfile

 25 27  0  0  0  0  0  0  0  0999 V2000
    7.8222   -7.4620    0.0000 C   0  0  0  0  0  0  0  0  0  0  0  0
    7.8222   -6.6407    0.0000 C   0  0  0  0  0  0  0  0  0  0  0  0
    8.5356   -7.8726    0.0000 C   0  0  0  0  0  0  0  0  0  0  0  0
    8.5315   -8.6939    0.0000 C   0  0  0  0  0  0  0  0  0  0  0  0
    9.2159   -7.4288    0.0000 C   0  0  0  0  0  0  0  0  0  0  0  0
    8.5854   -6.9974    0.0000 O   0  0  0  0  0  0  0  0  0  0  0  0
    9.9542   -8.6939    0.0000 C   0  0  0  0  0  0  0  0  0  0  0  0
    9.2408   -9.1046    0.0000 C   0  0  0  0  0  0  0  0  0  0  0  0
    9.9501   -7.8685    0.0000 C   0  0  0  0  0  0  0  0  0  0  0  0
    8.5358   -6.2320    0.0000 C   0  0  0  0  0  0  0  0  0  0  0  0
    8.5361   -5.4114    0.0000 N   0  0  0  0  0  0  0  0  0  0  0  0
    7.8243   -5.0000    0.0000 C   0  0  0  0  0  0  0  0  0  0  0  0
    7.1107   -5.4150    0.0000 C   0  0  0  0  0  0  0  0  0  0  0  0
    7.1139   -6.2342    0.0000 C   0  0  0  0  0  0  0  0  0  0  0  0
   10.6662   -9.1032    0.0000 Cl  0  0  0  0  0  0  0  0  0  0  0  0
    7.1157   -7.8807    0.0000 C   0  0  0  0  0  0  0  0  0  0  0  0
    6.4030   -7.4785    0.0000 C   0  0  0  0  0  0  0  0  0  0  0  0
    5.6970   -7.8965    0.0000 C   0  0  0  0  0  0  0  0  0  0  0  0
    5.7059   -8.7186    0.0000 C   0  0  0  0  0  0  0  0  0  0  0  0
    6.4268   -9.1209    0.0000 C   0  0  0  0  0  0  0  0  0  0  0  0
    7.1299   -8.7005    0.0000 C   0  0  0  0  0  0  0  0  0  0  0  0
    5.0000   -9.1383    0.0000 C   0  0  0  0  0  0  0  0  0  0  0  0
    4.2836   -8.7368    0.0000 F   0  0  0  0  0  0  0  0  0  0  0  0
    5.0105   -9.9595    0.0000 F   0  0  0  0  0  0  0  0  0  0  0  0
    4.7773   -8.3478    0.0000 F   0  0  0  0  0  0  0  0  0  0  0  0
 19 22  1  0  0  0  0
 22 23  1  0  0  0  0
 22 24  1  0  0  0  0
 22 25  1  0  0  0  0
 14  2  1  0  0  0  0
  7  9  1  0  0  0  0
  8  4  1  0  0  0  0
  7 15  1  0  0  0  0
  1 16  1  0  0  0  0
  9  5  2  0  0  0  0
 16 17  2  0  0  0  0
  7  8  2  0  0  0  0
 17 18  1  0  0  0  0
  2  1  1  0  0  0  0
 18 19  2  0  0  0  0
  3  1  1  0  0  0  0
 19 20  1  0  0  0  0
  2 10  2  0  0  0  0
 20 21  2  0  0  0  0
 21 16  1  0  0  0  0
 10 11  1  0  0  0  0
  4  3  2  0  0  0  0
 11 12  2  0  0  0  0
  5  3  1  0  0  0  0
 12 13  1  0  0  0  0
  6  1  1  0  0  0  0
 13 14  2  0  0  0  0
M  END
> <Molecule Name>
DNDI1307370

> <CDD Number>
CDD-1535215

> <IC50_uM>
0.0082 (n=1)

$$$$

SketchEl molfile

 25 27  0  0  0  0  0  0  0  0999 V2000
    7.1252   -7.4620    0.0000 C   0  0  0  0  0  0  0  0  0  0  0  0
    7.1252   -6.6408    0.0000 C   0  0  0  0  0  0  0  0  0  0  0  0
    7.8386   -7.8726    0.0000 C   0  0  0  0  0  0  0  0  0  0  0  0
    7.8345   -8.6939    0.0000 C   0  0  0  0  0  0  0  0  0  0  0  0
    8.5188   -7.4288    0.0000 C   0  0  0  0  0  0  0  0  0  0  0  0
    7.8884   -6.9975    0.0000 O   0  0  0  0  0  0  0  0  0  0  0  0
    9.2572   -8.6939    0.0000 C   0  0  0  0  0  0  0  0  0  0  0  0
    8.5437   -9.1045    0.0000 C   0  0  0  0  0  0  0  0  0  0  0  0
    9.2530   -7.8685    0.0000 C   0  0  0  0  0  0  0  0  0  0  0  0
    7.8387   -6.2320    0.0000 C   0  0  0  0  0  0  0  0  0  0  0  0
    7.8391   -5.4115    0.0000 N   0  0  0  0  0  0  0  0  0  0  0  0
    7.1273   -5.0000    0.0000 C   0  0  0  0  0  0  0  0  0  0  0  0
    6.4137   -5.4151    0.0000 C   0  0  0  0  0  0  0  0  0  0  0  0
    6.4169   -6.2342    0.0000 C   0  0  0  0  0  0  0  0  0  0  0  0
    9.9691   -9.1032    0.0000 Cl  0  0  0  0  0  0  0  0  0  0  0  0
    6.4187   -7.8808    0.0000 C   0  0  0  0  0  0  0  0  0  0  0  0
    5.7060   -7.4785    0.0000 C   0  0  0  0  0  0  0  0  0  0  0  0
    5.0000   -7.8965    0.0000 C   0  0  0  0  0  0  0  0  0  0  0  0
    5.0090   -8.7186    0.0000 C   0  0  0  0  0  0  0  0  0  0  0  0
    5.7298   -9.1209    0.0000 C   0  0  0  0  0  0  0  0  0  0  0  0
    6.4329   -8.7005    0.0000 C   0  0  0  0  0  0  0  0  0  0  0  0
    7.1525   -9.0968    0.0000 C   0  0  0  0  0  0  0  0  0  0  0  0
    6.4361   -8.6953    0.0000 F   0  0  0  0  0  0  0  0  0  0  0  0
    7.1630   -9.9180    0.0000 F   0  0  0  0  0  0  0  0  0  0  0  0
    6.9299   -8.3063    0.0000 F   0  0  0  0  0  0  0  0  0  0  0  0
 22 21  1  0  0  0  0
 22 23  1  0  0  0  0
 22 24  1  0  0  0  0
 22 25  1  0  0  0  0
 16 17  2  0  0  0  0
  7  8  2  0  0  0  0
 17 18  1  0  0  0  0
  2  1  1  0  0  0  0
 18 19  2  0  0  0  0
  3  1  1  0  0  0  0
 19 20  1  0  0  0  0
  2 10  2  0  0  0  0
 20 21  2  0  0  0  0
 21 16  1  0  0  0  0
 10 11  1  0  0  0  0
  4  3  2  0  0  0  0
 11 12  2  0  0  0  0
  5  3  1  0  0  0  0
 12 13  1  0  0  0  0
  6  1  1  0  0  0  0
 13 14  2  0  0  0  0
 14  2  1  0  0  0  0
  7  9  1  0  0  0  0
  8  4  1  0  0  0  0
  7 15  1  0  0  0  0
  1 16  1  0  0  0  0
  9  5  2  0  0  0  0
M  END
> <Molecule Name>
DNDI1307371

> <CDD Number>
CDD-1535216

> <IC50_uM>
0.122 (n=1)

$$$$

SketchEl molfile

 11 11  0  0  0  0  0  0  0  0999 V2000
    5.0012   -7.4820    0.0000 C   0  0  0  0  0  0  0  0  0  0  0  0
    5.0000   -8.3087    0.0000 C   0  0  0  0  0  0  0  0  0  0  0  0
    5.7142   -8.7212    0.0000 N   0  0  0  0  0  0  0  0  0  0  0  0
    6.4301   -8.3082    0.0000 C   0  0  0  0  0  0  0  0  0  0  0  0
    6.4272   -7.4784    0.0000 C   0  0  0  0  0  0  0  0  0  0  0  0
    5.7124   -7.0696    0.0000 C   0  0  0  0  0  0  0  0  0  0  0  0
    7.1395   -7.0635    0.0000 C   0  0  0  0  0  0  0  0  0  0  0  0
    7.8550   -7.4730    0.0000 C   0  0  0  0  0  0  0  0  0  0  0  0
    7.1364   -6.2392    0.0000 N   0  0  0  0  0  0  0  0  0  0  0  0
    7.8488   -5.8243    0.0000 O   0  0  0  0  0  0  0  0  0  0  0  0
    7.8457   -5.0000    0.0000 C   0  0  0  0  0  0  0  0  0  0  0  0
  5  6  2  0  0  0  0
  6  1  1  0  0  0  0
  1  2  2  0  0  0  0
  5  7  1  0  0  0  0
  3  4  2  0  0  0  0
  7  8  1  0  0  0  0
  7  9  2  0  0  0  0
  4  5  1  0  0  0  0
  9 10  1  0  0  0  0
  2  3  1  0  0  0  0
 10 11  1  0  0  0  0
M  END
> <Molecule Name>
DNDI1307374

> <CDD Number>
CDD-1535217

> <IC50_uM>
> 10.0 (n=1)

$$$$

SketchEl molfile

 22 24  0  0  0  0  0  0  0  0999 V2000
    7.1240   -7.4607    0.0000 C   0  0  0  0  0  0  0  0  0  0  0  0
    7.1240   -6.6399    0.0000 C   0  0  0  0  0  0  0  0  0  0  0  0
    7.8370   -7.8711    0.0000 C   0  0  0  0  0  0  0  0  0  0  0  0
    7.8329   -8.6919    0.0000 C   0  0  0  0  0  0  0  0  0  0  0  0
    8.5169   -7.4275    0.0000 C   0  0  0  0  0  0  0  0  0  0  0  0
    7.8868   -6.9964    0.0000 O   0  0  0  0  0  0  0  0  0  0  0  0
    9.2548   -8.6919    0.0000 C   0  0  0  0  0  0  0  0  0  0  0  0
    8.5418   -9.1023    0.0000 C   0  0  0  0  0  0  0  0  0  0  0  0
    9.2507   -7.8669    0.0000 C   0  0  0  0  0  0  0  0  0  0  0  0
    7.8372   -6.2313    0.0000 C   0  0  0  0  0  0  0  0  0  0  0  0
    7.8375   -5.4113    0.0000 N   0  0  0  0  0  0  0  0  0  0  0  0
    7.1261   -5.0000    0.0000 C   0  0  0  0  0  0  0  0  0  0  0  0
    6.4129   -5.4149    0.0000 C   0  0  0  0  0  0  0  0  0  0  0  0
    6.4161   -6.2335    0.0000 C   0  0  0  0  0  0  0  0  0  0  0  0
    6.4179   -7.8792    0.0000 C   0  0  0  0  0  0  0  0  0  0  0  0
    5.7056   -7.4771    0.0000 C   0  0  0  0  0  0  0  0  0  0  0  0
    5.0000   -7.8949    0.0000 C   0  0  0  0  0  0  0  0  0  0  0  0
    5.0089   -8.7166    0.0000 C   0  0  0  0  0  0  0  0  0  0  0  0
    5.7294   -9.1186    0.0000 C   0  0  0  0  0  0  0  0  0  0  0  0
    6.4321   -8.6985    0.0000 C   0  0  0  0  0  0  0  0  0  0  0  0
    9.9637   -7.4604    0.0000 F   0  0  0  0  0  0  0  0  0  0  0  0
    7.1495   -9.0972    0.0000 Cl  0  0  0  0  0  0  0  0  0  0  0  0
  7  8  2  0  0  0  0
 16 17  1  0  0  0  0
  2  1  1  0  0  0  0
 17 18  2  0  0  0  0
  3  1  1  0  0  0  0
 18 19  1  0  0  0  0
  2 10  2  0  0  0  0
 19 20  2  0  0  0  0
 20 15  1  0  0  0  0
 10 11  1  0  0  0  0
  4  3  2  0  0  0  0
 11 12  2  0  0  0  0
  5  3  1  0  0  0  0
 12 13  1  0  0  0  0
  6  1  1  0  0  0  0
 13 14  2  0  0  0  0
 14  2  1  0  0  0  0
  7  9  1  0  0  0  0
  8  4  1  0  0  0  0
  1 15  1  0  0  0  0
  9  5  2  0  0  0  0
  9 21  1  0  0  0  0
 15 16  2  0  0  0  0
 20 22  1  0  0  0  0
M  END
> <Molecule Name>
DNDI1315839

> <CDD Number>
CDD-1535218

> <IC50_uM>
0.647777739660757 ร/รท 1.23489340636293 (n=2)

$$$$

SketchEl molfile

 25 26  0  0  0  0  0  0  0  0999 V2000
   10.0011   -6.2353    0.0000 C   0  0  0  0  0  0  0  0  0  0  0  0
   10.0000   -7.0624    0.0000 C   0  0  0  0  0  0  0  0  0  0  0  0
   10.7146   -7.4752    0.0000 C   0  0  0  0  0  0  0  0  0  0  0  0
   11.4308   -7.0619    0.0000 C   0  0  0  0  0  0  0  0  0  0  0  0
   11.4280   -6.2317    0.0000 C   0  0  0  0  0  0  0  0  0  0  0  0
   10.7128   -5.8227    0.0000 C   0  0  0  0  0  0  0  0  0  0  0  0
   12.1407   -5.8166    0.0000 O   0  0  0  0  0  0  0  0  0  0  0  0
   12.8565   -6.2263    0.0000 C   0  0  0  0  0  0  0  0  0  0  0  0
    9.2854   -7.4742    0.0000 C   0  0  0  0  0  0  0  0  0  0  0  0
    8.5715   -7.0613    0.0000 C   0  0  0  0  0  0  0  0  0  0  0  0
    7.8569   -7.4731    0.0000 C   0  0  0  0  0  0  0  0  0  0  0  0
    8.5721   -6.2365    0.0000 N   0  0  0  0  0  0  0  0  0  0  0  0
    9.2867   -5.8247    0.0000 O   0  0  0  0  0  0  0  0  0  0  0  0
    9.2874   -5.0000    0.0000 C   0  0  0  0  0  0  0  0  0  0  0  0
    7.1437   -7.0580    0.0000 C   0  0  0  0  0  0  0  0  0  0  0  0
    6.4296   -7.4691    0.0000 C   0  0  0  0  0  0  0  0  0  0  0  0
    6.4285   -8.2947    0.0000 C   0  0  0  0  0  0  0  0  0  0  0  0
    7.1475   -8.7075    0.0000 C   0  0  0  0  0  0  0  0  0  0  0  0
    7.8586   -8.2940    0.0000 C   0  0  0  0  0  0  0  0  0  0  0  0
    7.1457   -6.2332    0.0000 O   0  0  0  0  0  0  0  0  0  0  0  0
    7.8609   -5.8225    0.0000 C   0  0  0  0  0  0  0  0  0  0  0  0
    5.7159   -7.0558    0.0000 O   0  0  0  0  0  0  0  0  0  0  0  0
    5.7169   -6.2310    0.0000 C   0  0  0  0  0  0  0  0  0  0  0  0
    5.7145   -8.7075    0.0000 O   0  0  0  0  0  0  0  0  0  0  0  0
    5.0000   -8.2955    0.0000 C   0  0  0  0  0  0  0  0  0  0  0  0
  6  1  1  0  0  0  0
 12 13  1  0  0  0  0
  1  2  2  0  0  0  0
 13 14  1  0  0  0  0
  5  7  1  0  0  0  0
 11 15  2  0  0  0  0
  3  4  2  0  0  0  0
 15 16  1  0  0  0  0
  7  8  1  0  0  0  0
 16 17  2  0  0  0  0
 17 18  1  0  0  0  0
  2  9  1  0  0  0  0
 18 19  2  0  0  0  0
 19 11  1  0  0  0  0
  4  5  1  0  0  0  0
 15 20  1  0  0  0  0
  9 10  1  0  0  0  0
 20 21  1  0  0  0  0
  2  3  1  0  0  0  0
 16 22  1  0  0  0  0
 10 11  1  0  0  0  0
 22 23  1  0  0  0  0
  5  6  2  0  0  0  0
 17 24  1  0  0  0  0
 10 12  2  0  0  0  0
 24 25  1  0  0  0  0
M  END
> <Molecule Name>
DNDI1315840

> <CDD Number>
CDD-1535219

> <IC50_uM>
> 1.0 (n=1)

$$$$

SketchEl molfile

 21 22  0  0  0  0  0  0  0  0999 V2000
    9.6164   -6.2353    0.0000 C   0  0  0  0  0  0  0  0  0  0  0  0
    9.6153   -7.0623    0.0000 C   0  0  0  0  0  0  0  0  0  0  0  0
   10.3298   -7.4751    0.0000 C   0  0  0  0  0  0  0  0  0  0  0  0
   11.0460   -7.0619    0.0000 C   0  0  0  0  0  0  0  0  0  0  0  0
   11.0432   -6.2316    0.0000 C   0  0  0  0  0  0  0  0  0  0  0  0
   10.3280   -5.8226    0.0000 C   0  0  0  0  0  0  0  0  0  0  0  0
    8.9007   -7.4741    0.0000 C   0  0  0  0  0  0  0  0  0  0  0  0
    8.1868   -7.0612    0.0000 C   0  0  0  0  0  0  0  0  0  0  0  0
    7.4723   -7.4730    0.0000 C   0  0  0  0  0  0  0  0  0  0  0  0
    8.1875   -6.2365    0.0000 N   0  0  0  0  0  0  0  0  0  0  0  0
    8.9020   -5.8247    0.0000 O   0  0  0  0  0  0  0  0  0  0  0  0
    8.9027   -5.0000    0.0000 C   0  0  0  0  0  0  0  0  0  0  0  0
    6.7592   -7.0579    0.0000 C   0  0  0  0  0  0  0  0  0  0  0  0
    6.0451   -7.4690    0.0000 C   0  0  0  0  0  0  0  0  0  0  0  0
    6.0440   -8.2946    0.0000 C   0  0  0  0  0  0  0  0  0  0  0  0
    6.7629   -8.7073    0.0000 C   0  0  0  0  0  0  0  0  0  0  0  0
    7.4740   -8.2938    0.0000 C   0  0  0  0  0  0  0  0  0  0  0  0
   10.3296   -8.2998    0.0000 C   0  0  0  0  0  0  0  0  0  0  0  0
    9.6153   -8.7120    0.0000 O   0  0  0  0  0  0  0  0  0  0  0  0
   11.0438   -8.7123    0.0000 O   0  0  0  0  0  0  0  0  0  0  0  0
    5.3300   -8.7073    0.0000 Cl  0  0  0  0  0  0  0  0  0  0  0  0
 11 12  1  0  0  0  0
  9 13  2  0  0  0  0
  3  4  2  0  0  0  0
 13 14  1  0  0  0  0
 14 15  2  0  0  0  0
 15 16  1  0  0  0  0
  2  7  1  0  0  0  0
 16 17  2  0  0  0  0
 17  9  1  0  0  0  0
  4  5  1  0  0  0  0
  7  8  1  0  0  0  0
  2  3  1  0  0  0  0
  8  9  1  0  0  0  0
  5  6  2  0  0  0  0
  8 10  2  0  0  0  0
  3 18  1  0  0  0  0
  6  1  1  0  0  0  0
 18 19  2  0  0  0  0
 10 11  1  0  0  0  0
 18 20  1  0  0  0  0
  1  2  2  0  0  0  0
 15 21  1  0  0  0  0
M  END
> <Molecule Name>
DNDI1315841

> <CDD Number>
CDD-1535220

> <IC50_uM>
> 1.0 (n=1)

$$$$

SketchEl molfile

 20 22  0  0  0  0  0  0  0  0999 V2000
    7.1249   -7.4617    0.0000 C   0  0  0  0  0  0  0  0  0  0  0  0
    7.1249   -6.6405    0.0000 C   0  0  0  0  0  0  0  0  0  0  0  0
    7.8382   -7.8723    0.0000 C   0  0  0  0  0  0  0  0  0  0  0  0
    7.8880   -6.9972    0.0000 O   0  0  0  0  0  0  0  0  0  0  0  0
    7.8384   -6.2318    0.0000 C   0  0  0  0  0  0  0  0  0  0  0  0
    7.8387   -5.4114    0.0000 N   0  0  0  0  0  0  0  0  0  0  0  0
    7.1270   -5.0000    0.0000 C   0  0  0  0  0  0  0  0  0  0  0  0
    6.4135   -5.4150    0.0000 C   0  0  0  0  0  0  0  0  0  0  0  0
    6.4167   -6.2340    0.0000 C   0  0  0  0  0  0  0  0  0  0  0  0
    6.4185   -7.8804    0.0000 C   0  0  0  0  0  0  0  0  0  0  0  0
    5.7059   -7.4781    0.0000 C   0  0  0  0  0  0  0  0  0  0  0  0
    5.0000   -7.8961    0.0000 C   0  0  0  0  0  0  0  0  0  0  0  0
    5.0090   -8.7181    0.0000 C   0  0  0  0  0  0  0  0  0  0  0  0
    5.7297   -9.1203    0.0000 C   0  0  0  0  0  0  0  0  0  0  0  0
    6.4327   -8.7000    0.0000 C   0  0  0  0  0  0  0  0  0  0  0  0
    7.1504   -9.0989    0.0000 Cl  0  0  0  0  0  0  0  0  0  0  0  0
    7.9299   -8.6901    0.0000 C   0  0  0  0  0  0  0  0  0  0  0  0
    8.7352   -8.8602    0.0000 C   0  0  0  0  0  0  0  0  0  0  0  0
    9.1458   -8.1468    0.0000 S   0  0  0  0  0  0  0  0  0  0  0  0
    8.5942   -7.5360    0.0000 C   0  0  0  0  0  0  0  0  0  0  0  0
  3  1  1  0  0  0  0
 13 14  1  0  0  0  0
  2  5  2  0  0  0  0
 14 15  2  0  0  0  0
 15 10  1  0  0  0  0
  5  6  1  0  0  0  0
  6  7  2  0  0  0  0
  7  8  1  0  0  0  0
  4  1  1  0  0  0  0
  8  9  2  0  0  0  0
  9  2  1  0  0  0  0
  1 10  1  0  0  0  0
 10 11  2  0  0  0  0
 15 16  1  0  0  0  0
  3 17  1  0  0  0  0
 11 12  1  0  0  0  0
  2  1  1  0  0  0  0
 12 13  2  0  0  0  0
 17 18  2  0  0  0  0
 18 19  1  0  0  0  0
 19 20  1  0  0  0  0
 20  3  2  0  0  0  0
M  END
> <Molecule Name>
DNDI1317214

> <CDD Number>
CDD-1535221

> <IC50_uM>
0.509 (n=1)

$$$$

SketchEl molfile

 20 22  0  0  0  0  0  0  0  0999 V2000
    7.8218   -7.4617    0.0000 C   0  0  0  0  0  0  0  0  0  0  0  0
    7.8218   -6.6405    0.0000 C   0  0  0  0  0  0  0  0  0  0  0  0
    8.5351   -7.8722    0.0000 C   0  0  0  0  0  0  0  0  0  0  0  0
    8.5849   -6.9972    0.0000 O   0  0  0  0  0  0  0  0  0  0  0  0
    8.5353   -6.2318    0.0000 C   0  0  0  0  0  0  0  0  0  0  0  0
    8.5356   -5.4114    0.0000 N   0  0  0  0  0  0  0  0  0  0  0  0
    7.8239   -5.0000    0.0000 C   0  0  0  0  0  0  0  0  0  0  0  0
    7.1104   -5.4150    0.0000 C   0  0  0  0  0  0  0  0  0  0  0  0
    7.1136   -6.2340    0.0000 C   0  0  0  0  0  0  0  0  0  0  0  0
    7.1154   -7.8803    0.0000 C   0  0  0  0  0  0  0  0  0  0  0  0
    6.4028   -7.4781    0.0000 C   0  0  0  0  0  0  0  0  0  0  0  0
    5.6969   -7.8961    0.0000 C   0  0  0  0  0  0  0  0  0  0  0  0
    5.7058   -8.7181    0.0000 C   0  0  0  0  0  0  0  0  0  0  0  0
    6.4266   -9.1203    0.0000 C   0  0  0  0  0  0  0  0  0  0  0  0
    7.1296   -8.7000    0.0000 C   0  0  0  0  0  0  0  0  0  0  0  0
    8.6268   -8.6901    0.0000 C   0  0  0  0  0  0  0  0  0  0  0  0
    9.4321   -8.8602    0.0000 C   0  0  0  0  0  0  0  0  0  0  0  0
    9.8427   -8.1468    0.0000 S   0  0  0  0  0  0  0  0  0  0  0  0
    9.2911   -7.5360    0.0000 C   0  0  0  0  0  0  0  0  0  0  0  0
    5.0000   -9.1377    0.0000 Cl  0  0  0  0  0  0  0  0  0  0  0  0
  3  1  1  0  0  0  0
 13 14  1  0  0  0  0
  2  5  2  0  0  0  0
 14 15  2  0  0  0  0
 15 10  1  0  0  0  0
  5  6  1  0  0  0  0
  6  7  2  0  0  0  0
  7  8  1  0  0  0  0
  4  1  1  0  0  0  0
  8  9  2  0  0  0  0
  9  2  1  0  0  0  0
  1 10  1  0  0  0  0
 10 11  2  0  0  0  0
  3 16  1  0  0  0  0
 11 12  1  0  0  0  0
  2  1  1  0  0  0  0
 12 13  2  0  0  0  0
 16 17  2  0  0  0  0
 17 18  1  0  0  0  0
 18 19  1  0  0  0  0
 19  3  2  0  0  0  0
 13 20  1  0  0  0  0
M  END
> <Molecule Name>
DNDI1317215

> <CDD Number>
CDD-1535222

> <IC50_uM>
0.078 (n=1)

$$$$

SketchEl molfile

 20 22  0  0  0  0  0  0  0  0999 V2000
    7.1249   -7.4617    0.0000 C   0  0  0  0  0  0  0  0  0  0  0  0
    7.1249   -6.6405    0.0000 C   0  0  0  0  0  0  0  0  0  0  0  0
    7.8382   -7.8723    0.0000 C   0  0  0  0  0  0  0  0  0  0  0  0
    7.8880   -6.9972    0.0000 O   0  0  0  0  0  0  0  0  0  0  0  0
    7.8384   -6.2318    0.0000 C   0  0  0  0  0  0  0  0  0  0  0  0
    7.8387   -5.4114    0.0000 N   0  0  0  0  0  0  0  0  0  0  0  0
    7.1270   -5.0000    0.0000 C   0  0  0  0  0  0  0  0  0  0  0  0
    6.4135   -5.4150    0.0000 C   0  0  0  0  0  0  0  0  0  0  0  0
    6.4167   -6.2340    0.0000 C   0  0  0  0  0  0  0  0  0  0  0  0
    6.4185   -7.8804    0.0000 C   0  0  0  0  0  0  0  0  0  0  0  0
    5.7059   -7.4781    0.0000 C   0  0  0  0  0  0  0  0  0  0  0  0
    5.0000   -7.8961    0.0000 C   0  0  0  0  0  0  0  0  0  0  0  0
    5.0090   -8.7181    0.0000 C   0  0  0  0  0  0  0  0  0  0  0  0
    5.7297   -9.1203    0.0000 C   0  0  0  0  0  0  0  0  0  0  0  0
    6.4327   -8.7000    0.0000 C   0  0  0  0  0  0  0  0  0  0  0  0
    7.9299   -8.6901    0.0000 C   0  0  0  0  0  0  0  0  0  0  0  0
    8.7352   -8.8602    0.0000 C   0  0  0  0  0  0  0  0  0  0  0  0
    9.1458   -8.1468    0.0000 C   0  0  0  0  0  0  0  0  0  0  0  0
    8.5942   -7.5360    0.0000 S   0  0  0  0  0  0  0  0  0  0  0  0
    7.1504   -9.0989    0.0000 Cl  0  0  0  0  0  0  0  0  0  0  0  0
  3  1  1  0  0  0  0
 13 14  1  0  0  0  0
  2  5  2  0  0  0  0
 14 15  2  0  0  0  0
 15 10  1  0  0  0  0
  5  6  1  0  0  0  0
  6  7  2  0  0  0  0
  7  8  1  0  0  0  0
  4  1  1  0  0  0  0
  8  9  2  0  0  0  0
  9  2  1  0  0  0  0
  1 10  1  0  0  0  0
 10 11  2  0  0  0  0
  3 16  2  0  0  0  0
 11 12  1  0  0  0  0
  2  1  1  0  0  0  0
 12 13  2  0  0  0  0
 16 17  1  0  0  0  0
 17 18  2  0  0  0  0
 18 19  1  0  0  0  0
 19  3  1  0  0  0  0
 15 20  1  0  0  0  0
M  END
> <Molecule Name>
DNDI1317216

> <CDD Number>
CDD-1535223

> <IC50_uM>
0.345 (n=1)

$$$$

SketchEl molfile

 23 25  0  0  0  0  0  0  0  0999 V2000
    8.4884   -8.1899    0.0000 C   0  0  0  0  0  0  0  0  0  0  0  0
    9.3131   -8.1899    0.0000 C   0  0  0  0  0  0  0  0  0  0  0  0
    8.9007   -7.4740    0.0000 C   0  0  0  0  0  0  0  0  0  0  0  0
    6.0457   -7.4830    0.0000 C   0  0  0  0  0  0  0  0  0  0  0  0
    6.0445   -8.3101    0.0000 C   0  0  0  0  0  0  0  0  0  0  0  0
    6.7591   -8.7228    0.0000 C   0  0  0  0  0  0  0  0  0  0  0  0
    7.4752   -8.3096    0.0000 C   0  0  0  0  0  0  0  0  0  0  0  0
    7.4724   -7.4794    0.0000 C   0  0  0  0  0  0  0  0  0  0  0  0
    6.7572   -7.0704    0.0000 C   0  0  0  0  0  0  0  0  0  0  0  0
    8.1850   -7.0644    0.0000 C   0  0  0  0  0  0  0  0  0  0  0  0
    9.6134   -7.0590    0.0000 C   0  0  0  0  0  0  0  0  0  0  0  0
   10.3275   -7.4721    0.0000 C   0  0  0  0  0  0  0  0  0  0  0  0
   11.0397   -7.0577    0.0000 C   0  0  0  0  0  0  0  0  0  0  0  0
   11.0370   -6.2322    0.0000 C   0  0  0  0  0  0  0  0  0  0  0  0
   10.3163   -5.8227    0.0000 C   0  0  0  0  0  0  0  0  0  0  0  0
    9.6071   -6.2394    0.0000 C   0  0  0  0  0  0  0  0  0  0  0  0
    5.3300   -8.7219    0.0000 Cl  0  0  0  0  0  0  0  0  0  0  0  0
    8.1819   -6.2397    0.0000 N   0  0  0  0  0  0  0  0  0  0  0  0
    8.8945   -5.8247    0.0000 O   0  0  0  0  0  0  0  0  0  0  0  0
    8.8914   -5.0000    0.0000 C   0  0  0  0  0  0  0  0  0  0  0  0
   10.3286   -8.2968    0.0000 C   0  0  0  0  0  0  0  0  0  0  0  0
    9.6149   -8.7100    0.0000 O   0  0  0  0  0  0  0  0  0  0  0  0
   11.0433   -8.7082    0.0000 O   0  0  0  0  0  0  0  0  0  0  0  0
  3 11  1  0  0  0  0
  5  6  1  0  0  0  0
 11 12  2  0  0  0  0
  3  2  1  0  0  0  0
 12 13  1  0  0  0  0
  6  7  2  0  0  0  0
 13 14  2  0  0  0  0
  1  3  1  0  0  0  0
 14 15  1  0  0  0  0
  7  8  1  0  0  0  0
 15 16  2  0  0  0  0
 16 11  1  0  0  0  0
  5 17  1  0  0  0  0
  8  9  2  0  0  0  0
 10 18  2  0  0  0  0
  9  4  1  0  0  0  0
 18 19  1  0  0  0  0
  4  5  2  0  0  0  0
 19 20  1  0  0  0  0
  8 10  1  0  0  0  0
 12 21  1  0  0  0  0
 10  3  1  0  0  0  0
 21 22  2  0  0  0  0
  2  1  1  0  0  0  0
 21 23  1  0  0  0  0
M  END
> <Molecule Name>
DNDI1317217

> <CDD Number>
CDD-1535224

> <IC50_uM>
> 1.0 (n=1)

$$$$

SketchEl molfile

 19 20  0  0  0  0  0  0  0  0999 V2000
    9.2850   -7.4742    0.0000 C   0  0  0  0  0  0  0  0  0  0  0  0
    6.4297   -7.4832    0.0000 C   0  0  0  0  0  0  0  0  0  0  0  0
    6.4285   -8.3104    0.0000 C   0  0  0  0  0  0  0  0  0  0  0  0
    7.1431   -8.7231    0.0000 C   0  0  0  0  0  0  0  0  0  0  0  0
    7.8593   -8.3099    0.0000 C   0  0  0  0  0  0  0  0  0  0  0  0
    7.8565   -7.4796    0.0000 C   0  0  0  0  0  0  0  0  0  0  0  0
    7.1413   -7.0706    0.0000 C   0  0  0  0  0  0  0  0  0  0  0  0
    8.5692   -7.0645    0.0000 C   0  0  0  0  0  0  0  0  0  0  0  0
    9.9977   -7.0592    0.0000 C   0  0  0  0  0  0  0  0  0  0  0  0
   10.7119   -7.4723    0.0000 C   0  0  0  0  0  0  0  0  0  0  0  0
   11.4241   -7.0579    0.0000 C   0  0  0  0  0  0  0  0  0  0  0  0
   11.4214   -6.2323    0.0000 C   0  0  0  0  0  0  0  0  0  0  0  0
   10.7006   -5.8228    0.0000 C   0  0  0  0  0  0  0  0  0  0  0  0
    9.9913   -6.2395    0.0000 C   0  0  0  0  0  0  0  0  0  0  0  0
    5.7139   -8.7222    0.0000 O   0  0  0  0  0  0  0  0  0  0  0  0
    8.5661   -6.2398    0.0000 N   0  0  0  0  0  0  0  0  0  0  0  0
    9.2788   -5.8247    0.0000 O   0  0  0  0  0  0  0  0  0  0  0  0
    9.2756   -5.0000    0.0000 C   0  0  0  0  0  0  0  0  0  0  0  0
    5.0000   -8.3092    0.0000 C   0  0  0  0  0  0  0  0  0  0  0  0
  1  9  1  0  0  0  0
  3  4  1  0  0  0  0
  9 10  2  0  0  0  0
 10 11  1  0  0  0  0
  4  5  2  0  0  0  0
 11 12  2  0  0  0  0
 12 13  1  0  0  0  0
  5  6  1  0  0  0  0
 13 14  2  0  0  0  0
 14  9  1  0  0  0  0
  3 15  1  0  0  0  0
  6  7  2  0  0  0  0
  8 16  2  0  0  0  0
  7  2  1  0  0  0  0
 16 17  1  0  0  0  0
  2  3  2  0  0  0  0
 17 18  1  0  0  0  0
  6  8  1  0  0  0  0
  8  1  1  0  0  0  0
 15 19  1  0  0  0  0
M  END
> <Molecule Name>
DNDI1317218

> <CDD Number>
CDD-1535225

> <IC50_uM>
> 1.0 (n=1)

$$$$

SketchEl molfile

 18 19  0  0  0  0  0  0  0  0999 V2000
    8.7360   -7.4741    0.0000 C   0  0  0  0  0  0  0  0  0  0  0  0
    5.8807   -7.4832    0.0000 C   0  0  0  0  0  0  0  0  0  0  0  0
    5.8796   -8.3103    0.0000 C   0  0  0  0  0  0  0  0  0  0  0  0
    6.5941   -8.7230    0.0000 C   0  0  0  0  0  0  0  0  0  0  0  0
    7.3104   -8.3098    0.0000 C   0  0  0  0  0  0  0  0  0  0  0  0
    7.3075   -7.4795    0.0000 C   0  0  0  0  0  0  0  0  0  0  0  0
    6.5923   -7.0705    0.0000 C   0  0  0  0  0  0  0  0  0  0  0  0
    8.0202   -7.0645    0.0000 C   0  0  0  0  0  0  0  0  0  0  0  0
    9.4487   -7.0591    0.0000 C   0  0  0  0  0  0  0  0  0  0  0  0
   10.1629   -7.4722    0.0000 C   0  0  0  0  0  0  0  0  0  0  0  0
   10.8751   -7.0578    0.0000 C   0  0  0  0  0  0  0  0  0  0  0  0
   10.8724   -6.2322    0.0000 C   0  0  0  0  0  0  0  0  0  0  0  0
   10.1516   -5.8227    0.0000 C   0  0  0  0  0  0  0  0  0  0  0  0
    9.4423   -6.2394    0.0000 C   0  0  0  0  0  0  0  0  0  0  0  0
    5.1650   -8.7221    0.0000 F   0  0  0  0  0  0  0  0  0  0  0  0
    8.0171   -6.2397    0.0000 N   0  0  0  0  0  0  0  0  0  0  0  0
    8.7298   -5.8247    0.0000 O   0  0  0  0  0  0  0  0  0  0  0  0
    8.7267   -5.0000    0.0000 C   0  0  0  0  0  0  0  0  0  0  0  0
  1  9  1  0  0  0  0
  3  4  1  0  0  0  0
  9 10  2  0  0  0  0
 10 11  1  0  0  0  0
  4  5  2  0  0  0  0
 11 12  2  0  0  0  0
 12 13  1  0  0  0  0
  5  6  1  0  0  0  0
 13 14  2  0  0  0  0
 14  9  1  0  0  0  0
  3 15  1  0  0  0  0
  6  7  2  0  0  0  0
  8 16  2  0  0  0  0
  7  2  1  0  0  0  0
 16 17  1  0  0  0  0
  2  3  2  0  0  0  0
 17 18  1  0  0  0  0
  6  8  1  0  0  0  0
  8  1  1  0  0  0  0
M  END
> <Molecule Name>
DNDI1317219

> <CDD Number>
CDD-1535226

> <IC50_uM>
> 1.0 (n=1)

$$$$

SketchEl molfile

 18 19  0  0  0  0  0  0  0  0999 V2000
    8.9010   -7.4741    0.0000 C   0  0  0  0  0  0  0  0  0  0  0  0
    6.0457   -7.4832    0.0000 C   0  0  0  0  0  0  0  0  0  0  0  0
    6.0446   -8.3103    0.0000 C   0  0  0  0  0  0  0  0  0  0  0  0
    6.7591   -8.7230    0.0000 C   0  0  0  0  0  0  0  0  0  0  0  0
    7.4754   -8.3098    0.0000 C   0  0  0  0  0  0  0  0  0  0  0  0
    7.4725   -7.4795    0.0000 C   0  0  0  0  0  0  0  0  0  0  0  0
    6.7573   -7.0705    0.0000 C   0  0  0  0  0  0  0  0  0  0  0  0
    8.1852   -7.0645    0.0000 C   0  0  0  0  0  0  0  0  0  0  0  0
    9.6137   -7.0591    0.0000 C   0  0  0  0  0  0  0  0  0  0  0  0
   10.3279   -7.4722    0.0000 C   0  0  0  0  0  0  0  0  0  0  0  0
   11.0401   -7.0578    0.0000 C   0  0  0  0  0  0  0  0  0  0  0  0
   11.0374   -6.2322    0.0000 C   0  0  0  0  0  0  0  0  0  0  0  0
   10.3166   -5.8227    0.0000 C   0  0  0  0  0  0  0  0  0  0  0  0
    9.6073   -6.2394    0.0000 C   0  0  0  0  0  0  0  0  0  0  0  0
    5.3300   -8.7221    0.0000 Cl  0  0  0  0  0  0  0  0  0  0  0  0
    8.1821   -6.2397    0.0000 N   0  0  0  0  0  0  0  0  0  0  0  0
    8.8948   -5.8247    0.0000 O   0  0  0  0  0  0  0  0  0  0  0  0
    8.8917   -5.0000    0.0000 C   0  0  0  0  0  0  0  0  0  0  0  0
  1  9  1  0  0  0  0
  3  4  1  0  0  0  0
  9 10  2  0  0  0  0
 10 11  1  0  0  0  0
  4  5  2  0  0  0  0
 11 12  2  0  0  0  0
 12 13  1  0  0  0  0
  5  6  1  0  0  0  0
 13 14  2  0  0  0  0
 14  9  1  0  0  0  0
  3 15  1  0  0  0  0
  6  7  2  0  0  0  0
  8 16  2  0  0  0  0
  7  2  1  0  0  0  0
 16 17  1  0  0  0  0
  2  3  2  0  0  0  0
 17 18  1  0  0  0  0
  6  8  1  0  0  0  0
  8  1  1  0  0  0  0
M  END
> <Molecule Name>
DNDI1317220

> <CDD Number>
CDD-1535227

> <IC50_uM>
> 10.0 (n=1)

$$$$

SketchEl molfile

 23 25  0  0  0  0  0  0  0  0999 V2000
    7.1291   -7.4665    0.0000 C   0  0  0  0  0  0  0  0  0  0  0  0
    7.1291   -6.6438    0.0000 C   0  0  0  0  0  0  0  0  0  0  0  0
    7.8937   -7.0011    0.0000 O   0  0  0  0  0  0  0  0  0  0  0  0
    7.8439   -6.2342    0.0000 C   0  0  0  0  0  0  0  0  0  0  0  0
    7.8443   -5.4122    0.0000 N   0  0  0  0  0  0  0  0  0  0  0  0
    7.1312   -5.0000    0.0000 C   0  0  0  0  0  0  0  0  0  0  0  0
    6.4163   -5.4158    0.0000 C   0  0  0  0  0  0  0  0  0  0  0  0
    6.4195   -6.2365    0.0000 C   0  0  0  0  0  0  0  0  0  0  0  0
    6.4213   -7.8860    0.0000 C   0  0  0  0  0  0  0  0  0  0  0  0
    5.7073   -7.4830    0.0000 C   0  0  0  0  0  0  0  0  0  0  0  0
    5.0000   -7.9018    0.0000 C   0  0  0  0  0  0  0  0  0  0  0  0
    5.0090   -8.7254    0.0000 C   0  0  0  0  0  0  0  0  0  0  0  0
    5.7312   -9.1284    0.0000 C   0  0  0  0  0  0  0  0  0  0  0  0
    6.4355   -8.7073    0.0000 C   0  0  0  0  0  0  0  0  0  0  0  0
    7.1547   -9.1070    0.0000 Cl  0  0  0  0  0  0  0  0  0  0  0  0
    5.6988   -6.6603    0.0000 F   0  0  0  0  0  0  0  0  0  0  0  0
    7.8396   -7.8779    0.0000 C   0  0  0  0  0  0  0  0  0  0  0  0
    7.8359   -8.7000    0.0000 C   0  0  0  0  0  0  0  0  0  0  0  0
    8.5456   -9.1113    0.0000 C   0  0  0  0  0  0  0  0  0  0  0  0
    9.2582   -8.7016    0.0000 C   0  0  0  0  0  0  0  0  0  0  0  0
    9.2565   -7.8763    0.0000 C   0  0  0  0  0  0  0  0  0  0  0  0
    8.5462   -7.4687    0.0000 C   0  0  0  0  0  0  0  0  0  0  0  0
    9.9708   -9.1129    0.0000 Cl  0  0  0  0  0  0  0  0  0  0  0  0
  3  1  1  0  0  0  0
  7  8  2  0  0  0  0
  8  2  1  0  0  0  0
  1  9  1  0  0  0  0
  9 10  2  0  0  0  0
 10 11  1  0  0  0  0
  2  1  1  0  0  0  0
 11 12  2  0  0  0  0
 14 15  1  0  0  0  0
 10 16  1  0  0  0  0
 12 13  1  0  0  0  0
  1 17  1  0  0  0  0
  2  4  2  0  0  0  0
 17 18  2  0  0  0  0
 13 14  2  0  0  0  0
 18 19  1  0  0  0  0
 14  9  1  0  0  0  0
 19 20  2  0  0  0  0
  4  5  1  0  0  0  0
 20 21  1  0  0  0  0
  5  6  2  0  0  0  0
 21 22  2  0  0  0  0
 22 17  1  0  0  0  0
  6  7  1  0  0  0  0
 20 23  1  0  0  0  0
M  END
> <Molecule Name>
DNDI1322021

> <CDD Number>
CDD-1535228

> <IC50_uM>
0.172 (n=1)

$$$$

SketchEl molfile

 25 27  0  0  0  0  0  0  0  0999 V2000
    7.1283   -7.4626    0.0000 C   0  0  0  0  0  0  0  0  0  0  0  0
    7.1283   -6.6411    0.0000 C   0  0  0  0  0  0  0  0  0  0  0  0
    6.4189   -7.8733    0.0000 C   0  0  0  0  0  0  0  0  0  0  0  0
    7.8419   -7.8733    0.0000 C   0  0  0  0  0  0  0  0  0  0  0  0
    5.7136   -9.1014    0.0000 N   0  0  0  0  0  0  0  0  0  0  0  0
    7.8378   -8.6948    0.0000 C   0  0  0  0  0  0  0  0  0  0  0  0
    8.5223   -7.4294    0.0000 C   0  0  0  0  0  0  0  0  0  0  0  0
    7.8917   -6.9979    0.0000 O   0  0  0  0  0  0  0  0  0  0  0  0
    9.2608   -8.6948    0.0000 C   0  0  0  0  0  0  0  0  0  0  0  0
    8.5472   -9.1055    0.0000 C   0  0  0  0  0  0  0  0  0  0  0  0
    9.2566   -7.8692    0.0000 C   0  0  0  0  0  0  0  0  0  0  0  0
    6.4230   -8.6906    0.0000 C   0  0  0  0  0  0  0  0  0  0  0  0
    5.7094   -7.4584    0.0000 C   0  0  0  0  0  0  0  0  0  0  0  0
    5.0000   -8.6906    0.0000 C   0  0  0  0  0  0  0  0  0  0  0  0
    5.0000   -7.8692    0.0000 C   0  0  0  0  0  0  0  0  0  0  0  0
    7.8420   -6.2323    0.0000 C   0  0  0  0  0  0  0  0  0  0  0  0
    7.8424   -5.4116    0.0000 C   0  0  0  0  0  0  0  0  0  0  0  0
    7.1304   -5.0000    0.0000 C   0  0  0  0  0  0  0  0  0  0  0  0
    6.4167   -5.4152    0.0000 C   0  0  0  0  0  0  0  0  0  0  0  0
    6.4198   -6.2345    0.0000 C   0  0  0  0  0  0  0  0  0  0  0  0
    5.7098   -6.6475    0.0000 Cl  0  0  0  0  0  0  0  0  0  0  0  0
    9.9703   -7.4623    0.0000 C   0  0  0  0  0  0  0  0  0  0  0  0
   10.6794   -7.8770    0.0000 F   0  0  0  0  0  0  0  0  0  0  0  0
    9.9748   -6.6409    0.0000 F   0  0  0  0  0  0  0  0  0  0  0  0
   10.1785   -8.2570    0.0000 F   0  0  0  0  0  0  0  0  0  0  0  0
 11 22  1  0  0  0  0
 22 23  1  0  0  0  0
 22 24  1  0  0  0  0
 22 25  1  0  0  0  0
  3  1  1  0  0  0  0
  4  1  1  0  0  0  0
  5 12  2  0  0  0  0
  6  4  2  0  0  0  0
  7  4  1  0  0  0  0
  8  1  1  0  0  0  0
  9 11  1  0  0  0  0
 10  6  1  0  0  0  0
 11  7  2  0  0  0  0
 12  3  1  0  0  0  0
 13  3  2  0  0  0  0
 14 15  2  0  0  0  0
 15 13  1  0  0  0  0
  9 10  2  0  0  0  0
  5 14  1  0  0  0  0
  2  1  1  0  0  0  0
  2 16  2  0  0  0  0
 16 17  1  0  0  0  0
 17 18  2  0  0  0  0
 18 19  1  0  0  0  0
 19 20  2  0  0  0  0
 20  2  1  0  0  0  0
 20 21  1  0  0  0  0
M  END
> <Molecule Name>
DNDI1322022

> <CDD Number>
CDD-1535229

> <IC50_uM>
0.446 (n=1)

$$$$

SketchEl molfile

 21 23  0  0  0  0  0  0  0  0999 V2000
    7.1261   -7.7509    0.0000 C   0  0  0  0  0  0  0  0  0  0  0  0
    7.1261   -6.9303    0.0000 C   0  0  0  0  0  0  0  0  0  0  0  0
    6.4174   -8.1612    0.0000 C   0  0  0  0  0  0  0  0  0  0  0  0
    7.8390   -8.1612    0.0000 C   0  0  0  0  0  0  0  0  0  0  0  0
    5.7128   -9.3880    0.0000 N   0  0  0  0  0  0  0  0  0  0  0  0
    7.8348   -8.9818    0.0000 C   0  0  0  0  0  0  0  0  0  0  0  0
    8.5186   -7.7177    0.0000 C   0  0  0  0  0  0  0  0  0  0  0  0
    7.8887   -7.2867    0.0000 O   0  0  0  0  0  0  0  0  0  0  0  0
    9.2564   -8.9818    0.0000 C   0  0  0  0  0  0  0  0  0  0  0  0
    8.5435   -9.3921    0.0000 C   0  0  0  0  0  0  0  0  0  0  0  0
    9.2522   -8.1571    0.0000 C   0  0  0  0  0  0  0  0  0  0  0  0
    6.4215   -8.9777    0.0000 C   0  0  0  0  0  0  0  0  0  0  0  0
    5.7087   -7.7468    0.0000 C   0  0  0  0  0  0  0  0  0  0  0  0
    5.0000   -8.9777    0.0000 C   0  0  0  0  0  0  0  0  0  0  0  0
    5.0000   -8.1571    0.0000 C   0  0  0  0  0  0  0  0  0  0  0  0
    9.9678   -9.3908    0.0000 Cl  0  0  0  0  0  0  0  0  0  0  0  0
    7.7873   -6.4443    0.0000 S   0  0  0  0  0  0  0  0  0  0  0  0
    7.5337   -5.6639    0.0000 C   0  0  0  0  0  0  0  0  0  0  0  0
    6.7130   -5.6639    0.0000 C   0  0  0  0  0  0  0  0  0  0  0  0
    6.4596   -6.4443    0.0000 C   0  0  0  0  0  0  0  0  0  0  0  0
    8.0160   -5.0000    0.0000 Cl  0  0  0  0  0  0  0  0  0  0  0  0
  3  1  1  0  0  0  0
  4  1  1  0  0  0  0
  5 12  2  0  0  0  0
  6  4  2  0  0  0  0
  7  4  1  0  0  0  0
  8  1  1  0  0  0  0
  9 11  1  0  0  0  0
 10  6  1  0  0  0  0
 11  7  2  0  0  0  0
 12  3  1  0  0  0  0
 13  3  2  0  0  0  0
  9 16  1  0  0  0  0
  2 17  1  0  0  0  0
 14 15  2  0  0  0  0
 15 13  1  0  0  0  0
  9 10  2  0  0  0  0
  5 14  1  0  0  0  0
 17 18  1  0  0  0  0
 18 19  2  0  0  0  0
 19 20  1  0  0  0  0
 20  2  2  0  0  0  0
  2  1  1  0  0  0  0
 18 21  1  0  0  0  0
M  END
> <Molecule Name>
DNDI1322023

> <CDD Number>
CDD-1535230

> <IC50_uM>
0.077 (n=1)

$$$$

SketchEl molfile

 20 22  0  0  0  0  0  0  0  0999 V2000
    7.1256   -7.0865    0.0000 C   0  0  0  0  0  0  0  0  0  0  0  0
    7.1256   -6.2661    0.0000 C   0  0  0  0  0  0  0  0  0  0  0  0
    6.4171   -7.4967    0.0000 C   0  0  0  0  0  0  0  0  0  0  0  0
    7.8383   -7.4967    0.0000 C   0  0  0  0  0  0  0  0  0  0  0  0
    5.7127   -8.7232    0.0000 N   0  0  0  0  0  0  0  0  0  0  0  0
    7.8341   -8.3171    0.0000 C   0  0  0  0  0  0  0  0  0  0  0  0
    8.5178   -7.0533    0.0000 C   0  0  0  0  0  0  0  0  0  0  0  0
    7.8880   -6.6224    0.0000 O   0  0  0  0  0  0  0  0  0  0  0  0
    9.2553   -8.3171    0.0000 C   0  0  0  0  0  0  0  0  0  0  0  0
    8.5427   -8.7273    0.0000 C   0  0  0  0  0  0  0  0  0  0  0  0
    9.2512   -7.4926    0.0000 C   0  0  0  0  0  0  0  0  0  0  0  0
    6.4212   -8.3130    0.0000 C   0  0  0  0  0  0  0  0  0  0  0  0
    5.7085   -7.0823    0.0000 C   0  0  0  0  0  0  0  0  0  0  0  0
    5.0000   -8.3130    0.0000 C   0  0  0  0  0  0  0  0  0  0  0  0
    5.0000   -7.4926    0.0000 C   0  0  0  0  0  0  0  0  0  0  0  0
    9.9666   -8.7260    0.0000 Cl  0  0  0  0  0  0  0  0  0  0  0  0
    7.7866   -5.7802    0.0000 S   0  0  0  0  0  0  0  0  0  0  0  0
    7.5331   -5.0000    0.0000 C   0  0  0  0  0  0  0  0  0  0  0  0
    6.7126   -5.0000    0.0000 C   0  0  0  0  0  0  0  0  0  0  0  0
    6.4592   -5.7802    0.0000 N   0  0  0  0  0  0  0  0  0  0  0  0
  3  1  1  0  0  0  0
  4  1  1  0  0  0  0
  5 12  2  0  0  0  0
  6  4  2  0  0  0  0
  7  4  1  0  0  0  0
  8  1  1  0  0  0  0
  9 11  1  0  0  0  0
 10  6  1  0  0  0  0
 11  7  2  0  0  0  0
 12  3  1  0  0  0  0
 13  3  2  0  0  0  0
  9 16  1  0  0  0  0
  2 17  1  0  0  0  0
 14 15  2  0  0  0  0
 15 13  1  0  0  0  0
  9 10  2  0  0  0  0
  5 14  1  0  0  0  0
 17 18  1  0  0  0  0
 18 19  2  0  0  0  0
 19 20  1  0  0  0  0
 20  2  2  0  0  0  0
  2  1  1  0  0  0  0
M  END
> <Molecule Name>
DNDI1322024

> <CDD Number>
CDD-1535231

> <IC50_uM>
0.201 (n=1)

$$$$

SketchEl molfile

 23 25  0  0  0  0  0  0  0  0999 V2000
    7.1276   -8.2760    0.0000 C   0  0  0  0  0  0  0  0  0  0  0  0
    7.1276   -7.4548    0.0000 C   0  0  0  0  0  0  0  0  0  0  0  0
    6.4184   -8.6865    0.0000 C   0  0  0  0  0  0  0  0  0  0  0  0
    7.8409   -8.6865    0.0000 C   0  0  0  0  0  0  0  0  0  0  0  0
    5.7133   -9.9142    0.0000 N   0  0  0  0  0  0  0  0  0  0  0  0
    7.8368   -9.5077    0.0000 C   0  0  0  0  0  0  0  0  0  0  0  0
    8.5211   -8.2428    0.0000 C   0  0  0  0  0  0  0  0  0  0  0  0
    7.8907   -7.8115    0.0000 O   0  0  0  0  0  0  0  0  0  0  0  0
    9.2593   -9.5077    0.0000 C   0  0  0  0  0  0  0  0  0  0  0  0
    8.5460   -9.9183    0.0000 C   0  0  0  0  0  0  0  0  0  0  0  0
    9.2552   -8.6824    0.0000 C   0  0  0  0  0  0  0  0  0  0  0  0
    6.4225   -9.5036    0.0000 C   0  0  0  0  0  0  0  0  0  0  0  0
    5.7092   -8.2718    0.0000 C   0  0  0  0  0  0  0  0  0  0  0  0
    5.0000   -9.5036    0.0000 C   0  0  0  0  0  0  0  0  0  0  0  0
    5.0000   -8.6824    0.0000 C   0  0  0  0  0  0  0  0  0  0  0  0
    9.9712   -9.9170    0.0000 Cl  0  0  0  0  0  0  0  0  0  0  0  0
    7.8411   -7.0461    0.0000 C   0  0  0  0  0  0  0  0  0  0  0  0
    7.8414   -6.2256    0.0000 C   0  0  0  0  0  0  0  0  0  0  0  0
    7.1297   -5.8142    0.0000 C   0  0  0  0  0  0  0  0  0  0  0  0
    6.4162   -6.2292    0.0000 C   0  0  0  0  0  0  0  0  0  0  0  0
    6.4194   -7.0483    0.0000 C   0  0  0  0  0  0  0  0  0  0  0  0
    5.7036   -5.8212    0.0000 O   0  0  0  0  0  0  0  0  0  0  0  0
    5.7007   -5.0000    0.0000 C   0  0  0  0  0  0  0  0  0  0  0  0
  9 11  1  0  0  0  0
 10  6  1  0  0  0  0
 11  7  2  0  0  0  0
 12  3  1  0  0  0  0
 13  3  2  0  0  0  0
  9 16  1  0  0  0  0
 14 15  2  0  0  0  0
 15 13  1  0  0  0  0
  9 10  2  0  0  0  0
  5 14  1  0  0  0  0
  2  1  1  0  0  0  0
  2 17  2  0  0  0  0
  3  1  1  0  0  0  0
 17 18  1  0  0  0  0
  4  1  1  0  0  0  0
 18 19  2  0  0  0  0
  5 12  2  0  0  0  0
 19 20  1  0  0  0  0
  6  4  2  0  0  0  0
 20 21  2  0  0  0  0
 21  2  1  0  0  0  0
  7  4  1  0  0  0  0
 20 22  1  0  0  0  0
  8  1  1  0  0  0  0
 22 23  1  0  0  0  0
M  END
> <Molecule Name>
DNDI1322025

> <CDD Number>
CDD-1535232

> <IC50_uM>
0.061 (n=1)

$$$$

SketchEl molfile

 17 18  0  0  0  0  0  0  0  0999 V2000
    7.1411   -7.0661    0.0000 C   0  0  0  0  0  0  0  0  0  0  0  0
    6.4288   -7.4827    0.0000 C   0  0  0  0  0  0  0  0  0  0  0  0
    7.1369   -6.2413    0.0000 N   0  0  0  0  0  0  0  0  0  0  0  0
    7.8576   -7.4743    0.0000 C   0  0  0  0  0  0  0  0  0  0  0  0
    5.7123   -8.7240    0.0000 N   0  0  0  0  0  0  0  0  0  0  0  0
    8.5699   -7.0619    0.0000 C   0  0  0  0  0  0  0  0  0  0  0  0
    7.8492   -5.8248    0.0000 O   0  0  0  0  0  0  0  0  0  0  0  0
    6.4288   -8.3116    0.0000 C   0  0  0  0  0  0  0  0  0  0  0  0
    5.7123   -7.0703    0.0000 C   0  0  0  0  0  0  0  0  0  0  0  0
    5.0000   -8.3116    0.0000 C   0  0  0  0  0  0  0  0  0  0  0  0
    9.2822   -7.4743    0.0000 C   0  0  0  0  0  0  0  0  0  0  0  0
    8.5615   -6.2413    0.0000 C   0  0  0  0  0  0  0  0  0  0  0  0
    7.8451   -5.0000    0.0000 C   0  0  0  0  0  0  0  0  0  0  0  0
    5.0000   -7.4868    0.0000 C   0  0  0  0  0  0  0  0  0  0  0  0
    9.9945   -7.0578    0.0000 C   0  0  0  0  0  0  0  0  0  0  0  0
    9.2697   -5.8248    0.0000 C   0  0  0  0  0  0  0  0  0  0  0  0
    9.9945   -6.2330    0.0000 C   0  0  0  0  0  0  0  0  0  0  0  0
  2  1  1  0  0  0  0
  3  1  2  0  0  0  0
  4  1  1  0  0  0  0
  5  8  2  0  0  0  0
  6  4  1  0  0  0  0
  3  7  1  0  0  0  0
  8  2  1  0  0  0  0
  9  2  2  0  0  0  0
 10 14  2  0  0  0  0
 11  6  2  0  0  0  0
 12  6  1  0  0  0  0
 13  7  1  0  0  0  0
 14  9  1  0  0  0  0
 15 11  1  0  0  0  0
 16 12  2  0  0  0  0
 17 16  1  0  0  0  0
  5 10  1  0  0  0  0
 17 15  2  0  0  0  0
M  END
> <Molecule Name>
DNDI1322026

> <CDD Number>
CDD-1535233

> <IC50_uM>
> 1.0 (n=1)

$$$$

SketchEl molfile

 23 25  0  0  0  0  0  0  0  0999 V2000
    7.1276   -8.2829    0.0000 C   0  0  0  0  0  0  0  0  0  0  0  0
    7.1276   -7.4617    0.0000 C   0  0  0  0  0  0  0  0  0  0  0  0
    6.4184   -8.6934    0.0000 C   0  0  0  0  0  0  0  0  0  0  0  0
    7.8409   -8.6934    0.0000 C   0  0  0  0  0  0  0  0  0  0  0  0
    5.7133   -9.9211    0.0000 N   0  0  0  0  0  0  0  0  0  0  0  0
    7.8368   -9.5146    0.0000 C   0  0  0  0  0  0  0  0  0  0  0  0
    8.5211   -8.2497    0.0000 C   0  0  0  0  0  0  0  0  0  0  0  0
    7.8907   -7.8184    0.0000 O   0  0  0  0  0  0  0  0  0  0  0  0
    9.2593   -9.5146    0.0000 C   0  0  0  0  0  0  0  0  0  0  0  0
    8.5460   -9.9252    0.0000 C   0  0  0  0  0  0  0  0  0  0  0  0
    9.2552   -8.6893    0.0000 C   0  0  0  0  0  0  0  0  0  0  0  0
    6.4225   -9.5105    0.0000 C   0  0  0  0  0  0  0  0  0  0  0  0
    5.7092   -8.2787    0.0000 C   0  0  0  0  0  0  0  0  0  0  0  0
    5.0000   -9.5105    0.0000 C   0  0  0  0  0  0  0  0  0  0  0  0
    5.0000   -8.6893    0.0000 C   0  0  0  0  0  0  0  0  0  0  0  0
    9.9712   -9.9239    0.0000 Cl  0  0  0  0  0  0  0  0  0  0  0  0
    7.8411   -7.0530    0.0000 C   0  0  0  0  0  0  0  0  0  0  0  0
    7.8414   -6.2325    0.0000 C   0  0  0  0  0  0  0  0  0  0  0  0
    7.1297   -5.8211    0.0000 C   0  0  0  0  0  0  0  0  0  0  0  0
    6.4162   -6.2361    0.0000 C   0  0  0  0  0  0  0  0  0  0  0  0
    6.4194   -7.0552    0.0000 C   0  0  0  0  0  0  0  0  0  0  0  0
    5.7095   -7.4680    0.0000 F   0  0  0  0  0  0  0  0  0  0  0  0
    7.1286   -5.0000    0.0000 Cl  0  0  0  0  0  0  0  0  0  0  0  0
 10  6  1  0  0  0  0
 11  7  2  0  0  0  0
 12  3  1  0  0  0  0
 13  3  2  0  0  0  0
  9 16  1  0  0  0  0
 14 15  2  0  0  0  0
 15 13  1  0  0  0  0
  9 10  2  0  0  0  0
  5 14  1  0  0  0  0
  2  1  1  0  0  0  0
  2 17  2  0  0  0  0
  3  1  1  0  0  0  0
 17 18  1  0  0  0  0
  4  1  1  0  0  0  0
 18 19  2  0  0  0  0
  5 12  2  0  0  0  0
 19 20  1  0  0  0  0
  6  4  2  0  0  0  0
 20 21  2  0  0  0  0
 21  2  1  0  0  0  0
  7  4  1  0  0  0  0
  8  1  1  0  0  0  0
 21 22  1  0  0  0  0
  9 11  1  0  0  0  0
 19 23  1  0  0  0  0
M  END
> <Molecule Name>
DNDI1322027

> <CDD Number>
CDD-1535234

> <IC50_uM>
0.0163095064303001 ร/รท 1.2410247321666 (n=2)

$$$$

SketchEl molfile

 26 28  0  0  0  0  0  0  0  0999 V2000
    7.8578   -9.9532    0.0000 C   0  0  0  0  0  0  0  0  0  0  0  0
    7.8536   -9.1284    0.0000 C   0  0  0  0  0  0  0  0  0  0  0  0
    8.5659   -7.8953    0.0000 N   0  0  0  0  0  0  0  0  0  0  0  0
    7.1454  -10.3698    0.0000 C   0  0  0  0  0  0  0  0  0  0  0  0
    8.5743  -10.3615    0.0000 C   0  0  0  0  0  0  0  0  0  0  0  0
    8.5701   -8.7160    0.0000 C   0  0  0  0  0  0  0  0  0  0  0  0
    7.1412   -8.7243    0.0000 C   0  0  0  0  0  0  0  0  0  0  0  0
    9.2783   -9.9449    0.0000 C   0  0  0  0  0  0  0  0  0  0  0  0
    6.4289   -9.9574    0.0000 C   0  0  0  0  0  0  0  0  0  0  0  0
    7.1454  -11.1988    0.0000 C   0  0  0  0  0  0  0  0  0  0  0  0
    8.5743  -11.1863    0.0000 C   0  0  0  0  0  0  0  0  0  0  0  0
    7.8494   -7.4829    0.0000 C   0  0  0  0  0  0  0  0  0  0  0  0
    8.4368   -9.3658    0.0000 O   0  0  0  0  0  0  0  0  0  0  0  0
    5.7165  -11.1988    0.0000 C   0  0  0  0  0  0  0  0  0  0  0  0
   10.0031  -11.1780    0.0000 C   0  0  0  0  0  0  0  0  0  0  0  0
    7.1329   -7.9036    0.0000 C   0  0  0  0  0  0  0  0  0  0  0  0
    9.9948  -10.3490    0.0000 C   0  0  0  0  0  0  0  0  0  0  0  0
    5.7165  -10.3698    0.0000 C   0  0  0  0  0  0  0  0  0  0  0  0
    9.2866  -11.5945    0.0000 C   0  0  0  0  0  0  0  0  0  0  0  0
    6.4289  -11.6112    0.0000 C   0  0  0  0  0  0  0  0  0  0  0  0
   10.7197  -11.5904    0.0000 Cl  0  0  0  0  0  0  0  0  0  0  0  0
    5.0000  -11.6112    0.0000 Cl  0  0  0  0  0  0  0  0  0  0  0  0
    7.8453   -6.6580    0.0000 C   0  0  0  0  0  0  0  0  0  0  0  0
    8.5576   -6.2415    0.0000 C   0  0  0  0  0  0  0  0  0  0  0  0
    8.5534   -5.4166    0.0000 C   0  0  0  0  0  0  0  0  0  0  0  0
    9.2658   -5.0000    0.0000 C   0  0  0  0  0  0  0  0  0  0  0  0
  2  1  1  0  0  0  0
  3  6  1  0  0  0  0
  4  1  1  0  0  0  0
  5  1  1  0  0  0  0
  6  2  2  0  0  0  0
  7  2  1  0  0  0  0
  8  5  1  0  0  0  0
  9  4  2  0  0  0  0
 10  4  1  0  0  0  0
 11  5  2  0  0  0  0
 12 16  1  0  0  0  0
 13  1  1  0  0  0  0
 14 18  2  0  0  0  0
 15 19  2  0  0  0  0
 16  7  2  0  0  0  0
 17  8  2  0  0  0  0
 18  9  1  0  0  0  0
 19 11  1  0  0  0  0
 20 10  2  0  0  0  0
 21 15  1  0  0  0  0
 22 14  1  0  0  0  0
 23 12  1  0  0  0  0
 24 23  1  0  0  0  0
 25 24  1  0  0  0  0
 26 25  1  0  0  0  0
 17 15  1  0  0  0  0
 20 14  1  0  0  0  0
 12  3  2  0  0  0  0
M  END
> <Molecule Name>
DNDI1322028

> <CDD Number>
CDD-1535235

> <IC50_uM>
> 1.0 (n=1)

$$$$

SketchEl molfile

 19 20  0  0  0  0  0  0  0  0999 V2000
    5.0012   -8.7233    0.0000 C   0  0  0  0  0  0  0  0  0  0  0  0
    5.0000   -9.5504    0.0000 C   0  0  0  0  0  0  0  0  0  0  0  0
    5.7146   -9.9632    0.0000 N   0  0  0  0  0  0  0  0  0  0  0  0
    6.4309   -9.5500    0.0000 C   0  0  0  0  0  0  0  0  0  0  0  0
    6.4280   -8.7196    0.0000 C   0  0  0  0  0  0  0  0  0  0  0  0
    5.7128   -8.3106    0.0000 C   0  0  0  0  0  0  0  0  0  0  0  0
    7.1408   -8.3045    0.0000 C   0  0  0  0  0  0  0  0  0  0  0  0
    7.8566   -8.7142    0.0000 C   0  0  0  0  0  0  0  0  0  0  0  0
    7.1377   -7.4798    0.0000 O   0  0  0  0  0  0  0  0  0  0  0  0
    7.8564   -9.5367    0.0000 C   0  0  0  0  0  0  0  0  0  0  0  0
    8.5714   -9.9463    0.0000 C   0  0  0  0  0  0  0  0  0  0  0  0
    9.2851   -9.5312    0.0000 C   0  0  0  0  0  0  0  0  0  0  0  0
    9.2793   -8.7021    0.0000 C   0  0  0  0  0  0  0  0  0  0  0  0
    8.5638   -8.2962    0.0000 C   0  0  0  0  0  0  0  0  0  0  0  0
    7.8504   -7.0647    0.0000 C   0  0  0  0  0  0  0  0  0  0  0  0
    7.8473   -6.2399    0.0000 C   0  0  0  0  0  0  0  0  0  0  0  0
    8.5600   -5.8248    0.0000 C   0  0  0  0  0  0  0  0  0  0  0  0
    8.5569   -5.0000    0.0000 C   0  0  0  0  0  0  0  0  0  0  0  0
   10.0015   -9.9399    0.0000 Cl  0  0  0  0  0  0  0  0  0  0  0  0
  4  5  1  0  0  0  0
  8 10  2  0  0  0  0
  2  3  1  0  0  0  0
 10 11  1  0  0  0  0
  5  6  2  0  0  0  0
 11 12  2  0  0  0  0
  6  1  1  0  0  0  0
 12 13  1  0  0  0  0
  1  2  2  0  0  0  0
 13 14  2  0  0  0  0
 14  8  1  0  0  0  0
  5  7  1  0  0  0  0
  9 15  1  0  0  0  0
  3  4  2  0  0  0  0
 15 16  1  0  0  0  0
  7  8  1  0  0  0  0
 16 17  1  0  0  0  0
 17 18  1  0  0  0  0
  7  9  1  0  0  0  0
 12 19  1  0  0  0  0
M  END
> <Molecule Name>
DNDI1322029

> <CDD Number>
CDD-1535236

> <IC50_uM>
0.124 (n=1)

$$$$

SketchEl molfile

 18 19  0  0  0  0  0  0  0  0999 V2000
    7.3098   -6.6534    0.0000 C   0  0  0  0  0  0  0  0  0  0  0  0
    7.3098   -7.4780    0.0000 C   0  0  0  0  0  0  0  0  0  0  0  0
    6.5935   -6.2411    0.0000 C   0  0  0  0  0  0  0  0  0  0  0  0
    8.0220   -6.2369    0.0000 C   0  0  0  0  0  0  0  0  0  0  0  0
    5.1650   -6.2411    0.0000 N   0  0  0  0  0  0  0  0  0  0  0  0
    6.5977   -7.8903    0.0000 C   0  0  0  0  0  0  0  0  0  0  0  0
    8.0220   -7.8820    0.0000 C   0  0  0  0  0  0  0  0  0  0  0  0
    7.3140   -9.1231    0.0000 C   0  0  0  0  0  0  0  0  0  0  0  0
    8.0303   -8.7066    0.0000 C   0  0  0  0  0  0  0  0  0  0  0  0
    6.5977   -8.7108    0.0000 C   0  0  0  0  0  0  0  0  0  0  0  0
    7.3140   -9.9477    0.0000 Cl  0  0  0  0  0  0  0  0  0  0  0  0
    5.8772   -6.6534    0.0000 C   0  0  0  0  0  0  0  0  0  0  0  0
    5.1650   -5.4123    0.0000 C   0  0  0  0  0  0  0  0  0  0  0  0
    8.7383   -6.6492    0.0000 C   0  0  0  0  0  0  0  0  0  0  0  0
    6.5935   -5.4123    0.0000 C   0  0  0  0  0  0  0  0  0  0  0  0
    9.4505   -6.2369    0.0000 C   0  0  0  0  0  0  0  0  0  0  0  0
    5.8772   -5.0000    0.0000 C   0  0  0  0  0  0  0  0  0  0  0  0
   10.1668   -6.6492    0.0000 C   0  0  0  0  0  0  0  0  0  0  0  0
  2  1  1  0  0  0  0
  3  1  1  0  0  0  0
  4  1  2  0  0  0  0
  5 12  1  0  0  0  0
  6  2  2  0  0  0  0
  7  2  1  0  0  0  0
  8  9  1  0  0  0  0
  9  7  2  0  0  0  0
 10  6  1  0  0  0  0
 11  8  1  0  0  0  0
 12  3  2  0  0  0  0
 13  5  2  0  0  0  0
  4 14  1  0  0  0  0
 15  3  1  0  0  0  0
 16 14  1  0  0  0  0
 17 15  2  0  0  0  0
 18 16  1  0  0  0  0
  8 10  2  0  0  0  0
 13 17  1  0  0  0  0
M  END
> <Molecule Name>
DNDI1322030

> <CDD Number>
CDD-1535237

> <IC50_uM>
0.075 (n=1)

$$$$

SketchEl molfile

 17 18  0  0  0  0  0  0  0  0999 V2000
    5.7157   -6.6669    0.0000 C   0  0  0  0  0  0  0  0  0  0  0  0
    5.7146   -7.4940    0.0000 C   0  0  0  0  0  0  0  0  0  0  0  0
    6.4291   -7.9067    0.0000 N   0  0  0  0  0  0  0  0  0  0  0  0
    7.1453   -7.4935    0.0000 C   0  0  0  0  0  0  0  0  0  0  0  0
    7.1425   -6.6632    0.0000 C   0  0  0  0  0  0  0  0  0  0  0  0
    6.4273   -6.2543    0.0000 C   0  0  0  0  0  0  0  0  0  0  0  0
    7.8551   -6.2482    0.0000 C   0  0  0  0  0  0  0  0  0  0  0  0
    8.5709   -6.6579    0.0000 C   0  0  0  0  0  0  0  0  0  0  0  0
    9.2836   -6.2428    0.0000 C   0  0  0  0  0  0  0  0  0  0  0  0
    8.5740   -7.4826    0.0000 O   0  0  0  0  0  0  0  0  0  0  0  0
    9.9978   -6.6559    0.0000 C   0  0  0  0  0  0  0  0  0  0  0  0
   10.7100   -6.2416    0.0000 C   0  0  0  0  0  0  0  0  0  0  0  0
   10.7073   -5.4160    0.0000 C   0  0  0  0  0  0  0  0  0  0  0  0
    9.9865   -5.0065    0.0000 C   0  0  0  0  0  0  0  0  0  0  0  0
    9.2773   -5.4232    0.0000 C   0  0  0  0  0  0  0  0  0  0  0  0
   11.4194   -5.0000    0.0000 Cl  0  0  0  0  0  0  0  0  0  0  0  0
    5.0000   -7.9058    0.0000 Cl  0  0  0  0  0  0  0  0  0  0  0  0
  8  9  1  0  0  0  0
  4  5  1  0  0  0  0
  8 10  1  0  0  0  0
  2  3  1  0  0  0  0
  9 11  2  0  0  0  0
  5  6  2  0  0  0  0
 11 12  1  0  0  0  0
  6  1  1  0  0  0  0
 12 13  2  0  0  0  0
  1  2  2  0  0  0  0
 13 14  1  0  0  0  0
  5  7  1  0  0  0  0
 14 15  2  0  0  0  0
 15  9  1  0  0  0  0
  3  4  2  0  0  0  0
 13 16  1  0  0  0  0
  7  8  1  0  0  0  0
  2 17  1  0  0  0  0
M  END
> <Molecule Name>
DNDI1322031

> <CDD Number>
CDD-1535238

> <IC50_uM>
> 1.0 (n=1)

$$$$

SketchEl molfile

 19 20  0  0  0  0  0  0  0  0999 V2000
    7.1369   -6.6537    0.0000 N   0  0  0  0  0  0  0  0  0  0  0  0
    7.1410   -7.4784    0.0000 C   0  0  0  0  0  0  0  0  0  0  0  0
    6.4288   -7.8950    0.0000 C   0  0  0  0  0  0  0  0  0  0  0  0
    7.8575   -7.8867    0.0000 C   0  0  0  0  0  0  0  0  0  0  0  0
    5.7123   -9.1363    0.0000 N   0  0  0  0  0  0  0  0  0  0  0  0
    8.5615   -7.4701    0.0000 C   0  0  0  0  0  0  0  0  0  0  0  0
    7.8575   -8.7114    0.0000 C   0  0  0  0  0  0  0  0  0  0  0  0
    7.8492   -6.2371    0.0000 C   0  0  0  0  0  0  0  0  0  0  0  0
    9.2863   -8.7031    0.0000 C   0  0  0  0  0  0  0  0  0  0  0  0
    9.2779   -7.8742    0.0000 C   0  0  0  0  0  0  0  0  0  0  0  0
    8.5698   -9.1196    0.0000 C   0  0  0  0  0  0  0  0  0  0  0  0
   10.0027   -9.1155    0.0000 Cl  0  0  0  0  0  0  0  0  0  0  0  0
    6.4288   -8.7239    0.0000 C   0  0  0  0  0  0  0  0  0  0  0  0
    5.7123   -7.4826    0.0000 C   0  0  0  0  0  0  0  0  0  0  0  0
    5.0000   -8.7239    0.0000 C   0  0  0  0  0  0  0  0  0  0  0  0
    7.8450   -5.4124    0.0000 C   0  0  0  0  0  0  0  0  0  0  0  0
    5.0000   -7.8950    0.0000 C   0  0  0  0  0  0  0  0  0  0  0  0
    7.1327   -5.0042    0.0000 C   0  0  0  0  0  0  0  0  0  0  0  0
    8.5615   -5.0000    0.0000 C   0  0  0  0  0  0  0  0  0  0  0  0
  2  1  1  0  0  0  0
  3  2  1  0  0  0  0
  4  2  1  0  0  0  0
  5 13  2  0  0  0  0
  6  4  1  0  0  0  0
  7  4  2  0  0  0  0
  8  1  1  0  0  0  0
  9 11  2  0  0  0  0
 10  6  2  0  0  0  0
 11  7  1  0  0  0  0
 12  9  1  0  0  0  0
 13  3  1  0  0  0  0
 14  3  2  0  0  0  0
 15 17  2  0  0  0  0
 16  8  1  0  0  0  0
 17 14  1  0  0  0  0
 18 16  1  0  0  0  0
 19 16  1  0  0  0  0
 10  9  1  0  0  0  0
  5 15  1  0  0  0  0
M  END
> <Molecule Name>
DNDI1325586

> <CDD Number>
CDD-1535239

> <IC50_uM>
0.2 (n=1)

$$$$

SketchEl molfile

 20 22  0  0  0  0  0  0  0  0999 V2000
    7.1370   -6.6496    0.0000 N   0  0  0  0  0  0  0  0  0  0  0  0
    7.1411   -7.4744    0.0000 C   0  0  0  0  0  0  0  0  0  0  0  0
    6.4288   -7.8909    0.0000 C   0  0  0  0  0  0  0  0  0  0  0  0
    7.8576   -7.8826    0.0000 C   0  0  0  0  0  0  0  0  0  0  0  0
    5.7123   -9.1323    0.0000 N   0  0  0  0  0  0  0  0  0  0  0  0
    8.5616   -7.4661    0.0000 C   0  0  0  0  0  0  0  0  0  0  0  0
    7.8576   -8.7074    0.0000 C   0  0  0  0  0  0  0  0  0  0  0  0
    9.2864   -8.6991    0.0000 C   0  0  0  0  0  0  0  0  0  0  0  0
    8.5699   -9.1156    0.0000 C   0  0  0  0  0  0  0  0  0  0  0  0
    9.2781   -7.8701    0.0000 C   0  0  0  0  0  0  0  0  0  0  0  0
   10.0029   -9.1115    0.0000 Cl  0  0  0  0  0  0  0  0  0  0  0  0
    6.4288   -8.7199    0.0000 C   0  0  0  0  0  0  0  0  0  0  0  0
    6.4246   -6.2414    0.0000 C   0  0  0  0  0  0  0  0  0  0  0  0
    7.8534   -6.2372    0.0000 C   0  0  0  0  0  0  0  0  0  0  0  0
    5.7123   -7.4786    0.0000 C   0  0  0  0  0  0  0  0  0  0  0  0
    5.0000   -8.7199    0.0000 C   0  0  0  0  0  0  0  0  0  0  0  0
    5.0000   -7.8909    0.0000 C   0  0  0  0  0  0  0  0  0  0  0  0
    7.8534   -5.4166    0.0000 C   0  0  0  0  0  0  0  0  0  0  0  0
    6.4246   -5.4166    0.0000 C   0  0  0  0  0  0  0  0  0  0  0  0
    7.1411   -5.0000    0.0000 C   0  0  0  0  0  0  0  0  0  0  0  0
  2  1  1  0  0  0  0
  3  2  1  0  0  0  0
  4  2  1  0  0  0  0
  5 12  2  0  0  0  0
  6  4  1  0  0  0  0
  7  4  2  0  0  0  0
  8  9  2  0  0  0  0
  9  7  1  0  0  0  0
 10  6  2  0  0  0  0
 11  8  1  0  0  0  0
 12  3  1  0  0  0  0
 13  1  1  0  0  0  0
 14  1  1  0  0  0  0
 15  3  2  0  0  0  0
 16  5  1  0  0  0  0
 17 15  1  0  0  0  0
 18 14  1  0  0  0  0
 19 13  1  0  0  0  0
 20 19  1  0  0  0  0
 20 18  1  0  0  0  0
 10  8  1  0  0  0  0
 16 17  2  0  0  0  0
M  END
> <Molecule Name>
DNDI1325587

> <CDD Number>
CDD-1535240

> <IC50_uM>
0.18 (n=1)

$$$$

SketchEl molfile

 21 23  0  0  0  0  0  0  0  0999 V2000
    7.1372   -7.4747    0.0000 N   0  0  0  0  0  0  0  0  0  0  0  0
    7.1414   -8.2996    0.0000 C   0  0  0  0  0  0  0  0  0  0  0  0
    7.1414   -5.8249    0.0000 N   0  0  0  0  0  0  0  0  0  0  0  0
    6.4290   -8.7162    0.0000 C   0  0  0  0  0  0  0  0  0  0  0  0
    7.8580   -8.7079    0.0000 C   0  0  0  0  0  0  0  0  0  0  0  0
    7.8538   -7.0622    0.0000 C   0  0  0  0  0  0  0  0  0  0  0  0
    6.4248   -7.0664    0.0000 C   0  0  0  0  0  0  0  0  0  0  0  0
    5.7124   -9.9577    0.0000 N   0  0  0  0  0  0  0  0  0  0  0  0
    7.8580   -9.5328    0.0000 C   0  0  0  0  0  0  0  0  0  0  0  0
    8.5620   -8.2913    0.0000 C   0  0  0  0  0  0  0  0  0  0  0  0
    6.4248   -6.2415    0.0000 C   0  0  0  0  0  0  0  0  0  0  0  0
    7.8538   -6.2415    0.0000 C   0  0  0  0  0  0  0  0  0  0  0  0
    9.2869   -9.5244    0.0000 C   0  0  0  0  0  0  0  0  0  0  0  0
    9.2786   -8.6954    0.0000 C   0  0  0  0  0  0  0  0  0  0  0  0
    8.5704   -9.9410    0.0000 C   0  0  0  0  0  0  0  0  0  0  0  0
   10.0035   -9.9369    0.0000 Cl  0  0  0  0  0  0  0  0  0  0  0  0
    6.4290   -9.5453    0.0000 C   0  0  0  0  0  0  0  0  0  0  0  0
    7.1414   -5.0000    0.0000 C   0  0  0  0  0  0  0  0  0  0  0  0
    5.7124   -8.3038    0.0000 C   0  0  0  0  0  0  0  0  0  0  0  0
    5.0000   -9.5453    0.0000 C   0  0  0  0  0  0  0  0  0  0  0  0
    5.0000   -8.7204    0.0000 C   0  0  0  0  0  0  0  0  0  0  0  0
  2  1  1  0  0  0  0
  3 11  1  0  0  0  0
  4  2  1  0  0  0  0
  5  2  1  0  0  0  0
  6  1  1  0  0  0  0
  7  1  1  0  0  0  0
  8 17  2  0  0  0  0
  9  5  2  0  0  0  0
 10  5  1  0  0  0  0
 11  7  1  0  0  0  0
 12  6  1  0  0  0  0
 13 15  2  0  0  0  0
 14 10  2  0  0  0  0
 15  9  1  0  0  0  0
 16 13  1  0  0  0  0
 17  4  1  0  0  0  0
 18  3  1  0  0  0  0
 19  4  2  0  0  0  0
 20  8  1  0  0  0  0
 21 19  1  0  0  0  0
  3 12  1  0  0  0  0
 14 13  1  0  0  0  0
 20 21  2  0  0  0  0
M  END
> <Molecule Name>
DNDI1325588

> <CDD Number>
CDD-1535241

> <IC50_uM>
> 1.0 (n=1)

$$$$

SketchEl molfile

 22 24  0  0  0  0  0  0  0  0999 V2000
    7.1374   -7.8874    0.0000 N   0  0  0  0  0  0  0  0  0  0  0  0
    7.1416   -8.7123    0.0000 C   0  0  0  0  0  0  0  0  0  0  0  0
    7.1416   -6.2374    0.0000 N   0  0  0  0  0  0  0  0  0  0  0  0
    6.4291   -9.1290    0.0000 C   0  0  0  0  0  0  0  0  0  0  0  0
    7.8582   -9.1207    0.0000 C   0  0  0  0  0  0  0  0  0  0  0  0
    7.8541   -7.4749    0.0000 C   0  0  0  0  0  0  0  0  0  0  0  0
    6.4249   -7.4791    0.0000 C   0  0  0  0  0  0  0  0  0  0  0  0
    5.7125  -10.3706    0.0000 N   0  0  0  0  0  0  0  0  0  0  0  0
    7.8582   -9.9456    0.0000 C   0  0  0  0  0  0  0  0  0  0  0  0
    8.5624   -8.7040    0.0000 C   0  0  0  0  0  0  0  0  0  0  0  0
    6.4249   -6.6541    0.0000 C   0  0  0  0  0  0  0  0  0  0  0  0
    7.8541   -6.6541    0.0000 C   0  0  0  0  0  0  0  0  0  0  0  0
    9.2873   -9.9373    0.0000 C   0  0  0  0  0  0  0  0  0  0  0  0
    9.2790   -9.1082    0.0000 C   0  0  0  0  0  0  0  0  0  0  0  0
    8.5707  -10.3539    0.0000 C   0  0  0  0  0  0  0  0  0  0  0  0
   10.0040  -10.3498    0.0000 Cl  0  0  0  0  0  0  0  0  0  0  0  0
    6.4291   -9.9581    0.0000 C   0  0  0  0  0  0  0  0  0  0  0  0
    7.1416   -5.4125    0.0000 C   0  0  0  0  0  0  0  0  0  0  0  0
    5.7125   -8.7165    0.0000 C   0  0  0  0  0  0  0  0  0  0  0  0
    5.0000   -9.9581    0.0000 C   0  0  0  0  0  0  0  0  0  0  0  0
    7.8541   -5.0000    0.0000 C   0  0  0  0  0  0  0  0  0  0  0  0
    5.0000   -9.1332    0.0000 C   0  0  0  0  0  0  0  0  0  0  0  0
  2  1  1  0  0  0  0
  3 11  1  0  0  0  0
  4  2  1  0  0  0  0
  5  2  1  0  0  0  0
  6  1  1  0  0  0  0
  7  1  1  0  0  0  0
  8 17  2  0  0  0  0
  9  5  2  0  0  0  0
 10  5  1  0  0  0  0
 11  7  1  0  0  0  0
 12  6  1  0  0  0  0
 13 15  2  0  0  0  0
 14 10  2  0  0  0  0
 15  9  1  0  0  0  0
 16 13  1  0  0  0  0
 17  4  1  0  0  0  0
 18  3  1  0  0  0  0
 19  4  2  0  0  0  0
 20  8  1  0  0  0  0
 21 18  1  0  0  0  0
 22 19  1  0  0  0  0
  3 12  1  0  0  0  0
 14 13  1  0  0  0  0
 20 22  2  0  0  0  0
M  END
> <Molecule Name>
DNDI1325589

> <CDD Number>
CDD-1535242

> <IC50_uM>
> 1.0 (n=1)

$$$$

SketchEl molfile

 23 25  0  0  0  0  0  0  0  0999 V2000
    7.8572   -7.4698    0.0000 C   0  0  0  0  0  0  0  0  0  0  0  0
    8.5736   -7.8780    0.0000 C   0  0  0  0  0  0  0  0  0  0  0  0
   11.4182   -7.0325    0.0000 N   0  0  0  0  0  0  0  0  0  0  0  0
   10.7060   -7.4490    0.0000 C   0  0  0  0  0  0  0  0  0  0  0  0
    7.8530   -6.6452    0.0000 C   0  0  0  0  0  0  0  0  0  0  0  0
    7.1450   -7.8863    0.0000 C   0  0  0  0  0  0  0  0  0  0  0  0
    9.2774   -7.4615    0.0000 C   0  0  0  0  0  0  0  0  0  0  0  0
    8.5652   -5.4123    0.0000 N   0  0  0  0  0  0  0  0  0  0  0  0
    6.4286   -7.4740    0.0000 C   0  0  0  0  0  0  0  0  0  0  0  0
    7.1450   -8.7152    0.0000 C   0  0  0  0  0  0  0  0  0  0  0  0
    9.9938   -7.8655    0.0000 C   0  0  0  0  0  0  0  0  0  0  0  0
    7.1366   -7.0575    0.0000 O   0  0  0  0  0  0  0  0  0  0  0  0
    5.7164   -8.7152    0.0000 C   0  0  0  0  0  0  0  0  0  0  0  0
    5.7164   -7.8863    0.0000 C   0  0  0  0  0  0  0  0  0  0  0  0
    6.4286   -9.1275    0.0000 C   0  0  0  0  0  0  0  0  0  0  0  0
    8.5694   -6.2328    0.0000 C   0  0  0  0  0  0  0  0  0  0  0  0
    5.0000   -9.1275    0.0000 Cl  0  0  0  0  0  0  0  0  0  0  0  0
    8.5736   -8.7027    0.0000 C   0  0  0  0  0  0  0  0  0  0  0  0
    9.2858   -9.1108    0.0000 C   0  0  0  0  0  0  0  0  0  0  0  0
    7.1408   -6.2412    0.0000 C   0  0  0  0  0  0  0  0  0  0  0  0
    7.8489   -5.0000    0.0000 C   0  0  0  0  0  0  0  0  0  0  0  0
   10.0022   -8.6943    0.0000 C   0  0  0  0  0  0  0  0  0  0  0  0
    7.1325   -5.4207    0.0000 C   0  0  0  0  0  0  0  0  0  0  0  0
  2  1  1  0  0  0  0
  3  4  3  0  0  0  0
  4 11  1  0  0  0  0
  5  1  1  0  0  0  0
  6  1  1  0  0  0  0
  7  2  1  0  0  0  0
  8 16  1  0  0  0  0
  9  6  2  0  0  0  0
 10  6  1  0  0  0  0
 11  7  2  0  0  0  0
 12  1  1  0  0  0  0
 13 15  1  0  0  0  0
 14  9  1  0  0  0  0
 15 10  2  0  0  0  0
 16  5  2  0  0  0  0
 17 13  1  0  0  0  0
 18  2  2  0  0  0  0
 19 18  1  0  0  0  0
 20  5  1  0  0  0  0
 21 23  1  0  0  0  0
 22 19  2  0  0  0  0
 23 20  2  0  0  0  0
 13 14  2  0  0  0  0
 11 22  1  0  0  0  0
 21  8  2  0  0  0  0
M  END
> <Molecule Name>
DNDI1325590

> <CDD Number>
CDD-1535243

> <IC50_uM>
0.11 (n=1)

$$$$

SketchEl molfile

 22 24  0  0  0  0  0  0  0  0999 V2000
    7.8575   -7.4702    0.0000 C   0  0  0  0  0  0  0  0  0  0  0  0
    7.8533   -6.6454    0.0000 C   0  0  0  0  0  0  0  0  0  0  0  0
    8.5739   -7.8784    0.0000 C   0  0  0  0  0  0  0  0  0  0  0  0
    7.1452   -7.8867    0.0000 C   0  0  0  0  0  0  0  0  0  0  0  0
    8.5656   -5.4124    0.0000 N   0  0  0  0  0  0  0  0  0  0  0  0
    7.1452   -8.7156    0.0000 C   0  0  0  0  0  0  0  0  0  0  0  0
    8.5739   -8.7031    0.0000 C   0  0  0  0  0  0  0  0  0  0  0  0
    9.2779   -7.4618    0.0000 C   0  0  0  0  0  0  0  0  0  0  0  0
    6.4287   -7.4743    0.0000 C   0  0  0  0  0  0  0  0  0  0  0  0
    7.1410   -7.0578    0.0000 O   0  0  0  0  0  0  0  0  0  0  0  0
    5.7165   -8.7156    0.0000 C   0  0  0  0  0  0  0  0  0  0  0  0
    5.7165   -7.8867    0.0000 C   0  0  0  0  0  0  0  0  0  0  0  0
    6.4287   -9.1280    0.0000 C   0  0  0  0  0  0  0  0  0  0  0  0
    9.9944   -7.8659    0.0000 C   0  0  0  0  0  0  0  0  0  0  0  0
    9.2862   -9.1113    0.0000 C   0  0  0  0  0  0  0  0  0  0  0  0
    8.5698   -6.2330    0.0000 C   0  0  0  0  0  0  0  0  0  0  0  0
   10.0027   -8.6948    0.0000 C   0  0  0  0  0  0  0  0  0  0  0  0
    5.0000   -9.1280    0.0000 Cl  0  0  0  0  0  0  0  0  0  0  0  0
    7.1410   -6.2413    0.0000 C   0  0  0  0  0  0  0  0  0  0  0  0
    7.8492   -5.0000    0.0000 C   0  0  0  0  0  0  0  0  0  0  0  0
   10.7192   -9.1072    0.0000 C   0  0  0  0  0  0  0  0  0  0  0  0
    7.1327   -5.4208    0.0000 C   0  0  0  0  0  0  0  0  0  0  0  0
  2  1  1  0  0  0  0
  3  1  1  0  0  0  0
  4  1  1  0  0  0  0
  5 16  1  0  0  0  0
  6  4  1  0  0  0  0
  7  3  2  0  0  0  0
  8  3  1  0  0  0  0
  9  4  2  0  0  0  0
 10  1  1  0  0  0  0
 11 13  1  0  0  0  0
 12  9  1  0  0  0  0
 13  6  2  0  0  0  0
 14  8  2  0  0  0  0
 15  7  1  0  0  0  0
 16  2  2  0  0  0  0
 17 15  2  0  0  0  0
 18 11  1  0  0  0  0
 19  2  1  0  0  0  0
 20 22  1  0  0  0  0
 21 17  1  0  0  0  0
 22 19  2  0  0  0  0
 11 12  2  0  0  0  0
 20  5  2  0  0  0  0
 14 17  1  0  0  0  0
M  END
> <Molecule Name>
DNDI1325591

> <CDD Number>
CDD-1535244

> <IC50_uM>
0.017 (n=1)

$$$$

SketchEl molfile

 18 19  0  0  0  0  0  0  0  0999 V2000
    7.1411   -7.0662    0.0000 C   0  0  0  0  0  0  0  0  0  0  0  0
    7.8576   -7.4744    0.0000 C   0  0  0  0  0  0  0  0  0  0  0  0
    8.5699   -7.0620    0.0000 C   0  0  0  0  0  0  0  0  0  0  0  0
    6.4288   -7.4827    0.0000 C   0  0  0  0  0  0  0  0  0  0  0  0
    7.1370   -6.2414    0.0000 N   0  0  0  0  0  0  0  0  0  0  0  0
    5.7123   -8.7241    0.0000 N   0  0  0  0  0  0  0  0  0  0  0  0
    9.2822   -7.4744    0.0000 C   0  0  0  0  0  0  0  0  0  0  0  0
    7.8493   -5.8248    0.0000 O   0  0  0  0  0  0  0  0  0  0  0  0
    6.4288   -8.3117    0.0000 C   0  0  0  0  0  0  0  0  0  0  0  0
    5.7123   -7.0704    0.0000 C   0  0  0  0  0  0  0  0  0  0  0  0
    8.5616   -6.2414    0.0000 C   0  0  0  0  0  0  0  0  0  0  0  0
    5.0000   -8.3117    0.0000 C   0  0  0  0  0  0  0  0  0  0  0  0
    9.2822   -8.2992    0.0000 C   0  0  0  0  0  0  0  0  0  0  0  0
    9.9946   -7.0579    0.0000 C   0  0  0  0  0  0  0  0  0  0  0  0
    7.8451   -5.0000    0.0000 C   0  0  0  0  0  0  0  0  0  0  0  0
    5.0000   -7.4869    0.0000 C   0  0  0  0  0  0  0  0  0  0  0  0
    9.2739   -5.8248    0.0000 C   0  0  0  0  0  0  0  0  0  0  0  0
    9.9946   -6.2331    0.0000 C   0  0  0  0  0  0  0  0  0  0  0  0
  2  1  1  0  0  0  0
  3  2  1  0  0  0  0
  4  1  1  0  0  0  0
  5  1  2  0  0  0  0
  6  9  2  0  0  0  0
  7  3  2  0  0  0  0
  5  8  1  0  0  0  0
  9  4  1  0  0  0  0
 10  4  2  0  0  0  0
 11  3  1  0  0  0  0
 12 16  2  0  0  0  0
 13  7  1  0  0  0  0
 14  7  1  0  0  0  0
 15  8  1  0  0  0  0
 16 10  1  0  0  0  0
 17 11  2  0  0  0  0
 18 17  1  0  0  0  0
  6 12  1  0  0  0  0
 18 14  2  0  0  0  0
M  END
> <Molecule Name>
DNDI1325592

> <CDD Number>
CDD-1535245

> <IC50_uM>
> 1.0 (n=1)

$$$$

SketchEl molfile

 27 29  0  0  0  0  0  0  0  0999 V2000
   11.4313   -9.1070    0.0000 C   0  0  0  0  0  0  0  0  0  0  0  0
    8.5697   -7.4700    0.0000 C   0  0  0  0  0  0  0  0  0  0  0  0
   10.7149   -8.6947    0.0000 C   0  0  0  0  0  0  0  0  0  0  0  0
    8.5655   -6.6453    0.0000 C   0  0  0  0  0  0  0  0  0  0  0  0
    9.2862   -7.8782    0.0000 C   0  0  0  0  0  0  0  0  0  0  0  0
    7.8574   -7.8866    0.0000 C   0  0  0  0  0  0  0  0  0  0  0  0
    6.4287   -8.7155    0.0000 C   0  0  0  0  0  0  0  0  0  0  0  0
    5.7123   -9.1279    0.0000 N   0  0  0  0  0  0  0  0  0  0  0  0
    9.2778   -5.4124    0.0000 N   0  0  0  0  0  0  0  0  0  0  0  0
   10.7065   -7.8658    0.0000 C   0  0  0  0  0  0  0  0  0  0  0  0
    9.9984   -9.1112    0.0000 C   0  0  0  0  0  0  0  0  0  0  0  0
    9.9901   -7.4617    0.0000 C   0  0  0  0  0  0  0  0  0  0  0  0
    7.1410   -7.4742    0.0000 C   0  0  0  0  0  0  0  0  0  0  0  0
    7.8574   -8.7155    0.0000 C   0  0  0  0  0  0  0  0  0  0  0  0
    9.2862   -8.7030    0.0000 C   0  0  0  0  0  0  0  0  0  0  0  0
   11.4355   -9.9318    0.0000 F   0  0  0  0  0  0  0  0  0  0  0  0
   12.1436   -8.6905    0.0000 F   0  0  0  0  0  0  0  0  0  0  0  0
   10.8482   -9.6902    0.0000 F   0  0  0  0  0  0  0  0  0  0  0  0
    7.1410   -9.1279    0.0000 C   0  0  0  0  0  0  0  0  0  0  0  0
    6.4287   -7.8866    0.0000 C   0  0  0  0  0  0  0  0  0  0  0  0
    7.7700   -7.2493    0.0000 O   0  0  0  0  0  0  0  0  0  0  0  0
    9.2820   -6.2329    0.0000 C   0  0  0  0  0  0  0  0  0  0  0  0
    7.8533   -6.2413    0.0000 C   0  0  0  0  0  0  0  0  0  0  0  0
    8.5614   -5.0000    0.0000 C   0  0  0  0  0  0  0  0  0  0  0  0
    5.0000   -8.7155    0.0000 C   0  0  0  0  0  0  0  0  0  0  0  0
    5.7123   -9.9526    0.0000 C   0  0  0  0  0  0  0  0  0  0  0  0
    7.8449   -5.4207    0.0000 C   0  0  0  0  0  0  0  0  0  0  0  0
  2  5  1  0  0  0  0
  3  1  1  0  0  0  0
  4  2  1  0  0  0  0
  5 12  1  0  0  0  0
  6  2  1  0  0  0  0
  7 20  2  0  0  0  0
  8  7  1  0  0  0  0
  9 22  1  0  0  0  0
 10  3  1  0  0  0  0
 11  3  2  0  0  0  0
 12 10  2  0  0  0  0
 13  6  2  0  0  0  0
 14  6  1  0  0  0  0
 15 11  1  0  0  0  0
 16  1  1  0  0  0  0
 17  1  1  0  0  0  0
 18  1  1  0  0  0  0
 19 14  2  0  0  0  0
 20 13  1  0  0  0  0
 21  2  1  0  0  0  0
 22  4  2  0  0  0  0
 23  4  1  0  0  0  0
 24 27  1  0  0  0  0
 25  8  1  0  0  0  0
 26  8  1  0  0  0  0
 27 23  2  0  0  0  0
 15  5  2  0  0  0  0
 19  7  1  0  0  0  0
 24  9  2  0  0  0  0
M  END
> <Molecule Name>
DNDI1325593

> <CDD Number>
CDD-1535246

> <IC50_uM>
0.006 (n=1)

$$$$

SketchEl molfile

 25 27  0  0  0  0  0  0  0  0999 V2000
   10.7198   -9.1076    0.0000 C   0  0  0  0  0  0  0  0  0  0  0  0
    7.8578   -7.4704    0.0000 C   0  0  0  0  0  0  0  0  0  0  0  0
   10.0032   -8.6951    0.0000 C   0  0  0  0  0  0  0  0  0  0  0  0
    7.8536   -6.6455    0.0000 C   0  0  0  0  0  0  0  0  0  0  0  0
    8.5743   -7.8786    0.0000 C   0  0  0  0  0  0  0  0  0  0  0  0
    7.1454   -7.8869    0.0000 C   0  0  0  0  0  0  0  0  0  0  0  0
    8.5660   -5.4124    0.0000 N   0  0  0  0  0  0  0  0  0  0  0  0
    9.2867   -9.1117    0.0000 C   0  0  0  0  0  0  0  0  0  0  0  0
    9.9949   -7.8661    0.0000 C   0  0  0  0  0  0  0  0  0  0  0  0
    8.5743   -8.7035    0.0000 C   0  0  0  0  0  0  0  0  0  0  0  0
    9.2784   -7.4620    0.0000 C   0  0  0  0  0  0  0  0  0  0  0  0
   10.7239   -9.9324    0.0000 F   0  0  0  0  0  0  0  0  0  0  0  0
   11.4321   -8.6910    0.0000 F   0  0  0  0  0  0  0  0  0  0  0  0
   10.1366   -9.6908    0.0000 F   0  0  0  0  0  0  0  0  0  0  0  0
    6.4289   -7.4745    0.0000 C   0  0  0  0  0  0  0  0  0  0  0  0
    7.1454   -8.7160    0.0000 C   0  0  0  0  0  0  0  0  0  0  0  0
    7.1413   -7.0579    0.0000 O   0  0  0  0  0  0  0  0  0  0  0  0
    5.7165   -8.7160    0.0000 C   0  0  0  0  0  0  0  0  0  0  0  0
    6.4289   -9.1284    0.0000 C   0  0  0  0  0  0  0  0  0  0  0  0
    5.7165   -7.8911    0.0000 C   0  0  0  0  0  0  0  0  0  0  0  0
    8.5702   -6.2331    0.0000 C   0  0  0  0  0  0  0  0  0  0  0  0
    5.0000   -9.1284    0.0000 Br  0  0  0  0  0  0  0  0  0  0  0  0
    7.1413   -6.2414    0.0000 C   0  0  0  0  0  0  0  0  0  0  0  0
    7.8495   -5.0000    0.0000 C   0  0  0  0  0  0  0  0  0  0  0  0
    7.1329   -5.4207    0.0000 C   0  0  0  0  0  0  0  0  0  0  0  0
  2  5  1  0  0  0  0
  3  1  1  0  0  0  0
  4  2  1  0  0  0  0
  5 10  2  0  0  0  0
  6  2  1  0  0  0  0
  7 21  1  0  0  0  0
  8  3  2  0  0  0  0
  9  3  1  0  0  0  0
 10  8  1  0  0  0  0
 11  9  2  0  0  0  0
 12  1  1  0  0  0  0
 13  1  1  0  0  0  0
 14  1  1  0  0  0  0
 15  6  2  0  0  0  0
 16  6  1  0  0  0  0
 17  2  1  0  0  0  0
 18 20  2  0  0  0  0
 19 16  2  0  0  0  0
 20 15  1  0  0  0  0
 21  4  2  0  0  0  0
 22 18  1  0  0  0  0
 23  4  1  0  0  0  0
 24 25  1  0  0  0  0
 25 23  2  0  0  0  0
  5 11  1  0  0  0  0
 19 18  1  0  0  0  0
 24  7  2  0  0  0  0
M  END
> <Molecule Name>
DNDI1325594

> <CDD Number>
CDD-1535247

> <IC50_uM>
0.02 (n=1)

$$$$

SketchEl molfile

 21 23  0  0  0  0  0  0  0  0999 V2000
    8.5745   -7.8787    0.0000 C   0  0  0  0  0  0  0  0  0  0  0  0
    7.8579   -7.4704    0.0000 C   0  0  0  0  0  0  0  0  0  0  0  0
    8.6619   -8.6994    0.0000 C   0  0  0  0  0  0  0  0  0  0  0  0
    9.3243   -7.5413    0.0000 S   0  0  0  0  0  0  0  0  0  0  0  0
    7.8537   -6.6456    0.0000 C   0  0  0  0  0  0  0  0  0  0  0  0
    7.1455   -7.8870    0.0000 C   0  0  0  0  0  0  0  0  0  0  0  0
    9.8784   -8.1537    0.0000 C   0  0  0  0  0  0  0  0  0  0  0  0
    9.4701   -8.8661    0.0000 C   0  0  0  0  0  0  0  0  0  0  0  0
    8.5661   -5.4124    0.0000 N   0  0  0  0  0  0  0  0  0  0  0  0
    7.1455   -8.7161    0.0000 C   0  0  0  0  0  0  0  0  0  0  0  0
    6.4289   -7.4746    0.0000 C   0  0  0  0  0  0  0  0  0  0  0  0
    7.1413   -7.0580    0.0000 O   0  0  0  0  0  0  0  0  0  0  0  0
    5.7166   -8.7161    0.0000 C   0  0  0  0  0  0  0  0  0  0  0  0
    5.7166   -7.8912    0.0000 C   0  0  0  0  0  0  0  0  0  0  0  0
    6.4289   -9.1285    0.0000 C   0  0  0  0  0  0  0  0  0  0  0  0
    8.5703   -6.2331    0.0000 C   0  0  0  0  0  0  0  0  0  0  0  0
    5.0000   -9.1285    0.0000 Cl  0  0  0  0  0  0  0  0  0  0  0  0
    8.0495   -9.2535    0.0000 C   0  0  0  0  0  0  0  0  0  0  0  0
    7.1413   -6.2415    0.0000 C   0  0  0  0  0  0  0  0  0  0  0  0
    7.8496   -5.0000    0.0000 C   0  0  0  0  0  0  0  0  0  0  0  0
    7.1330   -5.4208    0.0000 C   0  0  0  0  0  0  0  0  0  0  0  0
  2  1  1  0  0  0  0
  3  1  2  0  0  0  0
  4  1  1  0  0  0  0
  5  2  1  0  0  0  0
  6  2  1  0  0  0  0
  7  4  1  0  0  0  0
  8  3  1  0  0  0  0
  9 16  1  0  0  0  0
 10  6  1  0  0  0  0
 11  6  2  0  0  0  0
 12  2  1  0  0  0  0
 13 15  1  0  0  0  0
 14 11  1  0  0  0  0
 15 10  2  0  0  0  0
 16  5  2  0  0  0  0
 17 13  1  0  0  0  0
 18  3  1  0  0  0  0
 19  5  1  0  0  0  0
 20 21  1  0  0  0  0
 21 19  2  0  0  0  0
  7  8  2  0  0  0  0
 13 14  2  0  0  0  0
 20  9  2  0  0  0  0
M  END
> <Molecule Name>
DNDI1325595

> <CDD Number>
CDD-1535248

> <IC50_uM>
0.02 (n=1)

$$$$

SketchEl molfile

 23 25  0  0  0  0  0  0  0  0999 V2000
    7.8570   -7.4739    0.0000 C   0  0  0  0  0  0  0  0  0  0  0  0
    7.8528   -6.6492    0.0000 C   0  0  0  0  0  0  0  0  0  0  0  0
    8.5733   -7.8820    0.0000 C   0  0  0  0  0  0  0  0  0  0  0  0
    7.1448   -7.8903    0.0000 C   0  0  0  0  0  0  0  0  0  0  0  0
    8.5691   -6.2369    0.0000 C   0  0  0  0  0  0  0  0  0  0  0  0
    7.1448   -8.7191    0.0000 C   0  0  0  0  0  0  0  0  0  0  0  0
    8.5733   -8.7066    0.0000 C   0  0  0  0  0  0  0  0  0  0  0  0
    9.2771   -7.4655    0.0000 C   0  0  0  0  0  0  0  0  0  0  0  0
    6.4285   -7.4780    0.0000 C   0  0  0  0  0  0  0  0  0  0  0  0
    7.1365   -7.0616    0.0000 O   0  0  0  0  0  0  0  0  0  0  0  0
    8.5650   -5.4165    0.0000 C   0  0  0  0  0  0  0  0  0  0  0  0
    5.7163   -8.7191    0.0000 C   0  0  0  0  0  0  0  0  0  0  0  0
   10.0018   -8.6983    0.0000 C   0  0  0  0  0  0  0  0  0  0  0  0
    5.7163   -7.8903    0.0000 C   0  0  0  0  0  0  0  0  0  0  0  0
    9.2855   -9.1147    0.0000 C   0  0  0  0  0  0  0  0  0  0  0  0
    6.4285   -9.1314    0.0000 C   0  0  0  0  0  0  0  0  0  0  0  0
    9.9935   -7.8695    0.0000 C   0  0  0  0  0  0  0  0  0  0  0  0
    9.2771   -5.0000    0.0000 F   0  0  0  0  0  0  0  0  0  0  0  0
   10.7181   -9.1106    0.0000 Cl  0  0  0  0  0  0  0  0  0  0  0  0
    5.0000   -9.1314    0.0000 Cl  0  0  0  0  0  0  0  0  0  0  0  0
    7.1406   -6.2453    0.0000 C   0  0  0  0  0  0  0  0  0  0  0  0
    7.1323   -5.4248    0.0000 C   0  0  0  0  0  0  0  0  0  0  0  0
    7.8486   -5.0042    0.0000 C   0  0  0  0  0  0  0  0  0  0  0  0
  2  1  1  0  0  0  0
  3  1  1  0  0  0  0
  4  1  1  0  0  0  0
  5  2  2  0  0  0  0
  6  4  1  0  0  0  0
  7  3  2  0  0  0  0
  8  3  1  0  0  0  0
  9  4  2  0  0  0  0
 10  1  1  0  0  0  0
 11  5  1  0  0  0  0
 12 16  1  0  0  0  0
 13 15  2  0  0  0  0
 14  9  1  0  0  0  0
 15  7  1  0  0  0  0
 16  6  2  0  0  0  0
 17  8  2  0  0  0  0
 18 11  1  0  0  0  0
 19 13  1  0  0  0  0
 20 12  1  0  0  0  0
 21  2  1  0  0  0  0
 22 21  2  0  0  0  0
 23 22  1  0  0  0  0
 17 13  1  0  0  0  0
 12 14  2  0  0  0  0
 23 11  2  0  0  0  0
M  END
> <Molecule Name>
DNDI1325596

> <CDD Number>
CDD-1535249

> <IC50_uM>
0.56 (n=1)

$$$$

SketchEl molfile

 22 24  0  0  0  0  0  0  0  0999 V2000
    7.8577   -7.4703    0.0000 C   0  0  0  0  0  0  0  0  0  0  0  0
    8.5742   -7.8786    0.0000 C   0  0  0  0  0  0  0  0  0  0  0  0
    7.8535   -6.6455    0.0000 C   0  0  0  0  0  0  0  0  0  0  0  0
    7.1454   -7.8869    0.0000 C   0  0  0  0  0  0  0  0  0  0  0  0
    9.2782   -7.4620    0.0000 C   0  0  0  0  0  0  0  0  0  0  0  0
    8.5659   -5.4124    0.0000 N   0  0  0  0  0  0  0  0  0  0  0  0
    6.4289   -7.4745    0.0000 C   0  0  0  0  0  0  0  0  0  0  0  0
    7.1454   -8.7159    0.0000 C   0  0  0  0  0  0  0  0  0  0  0  0
    7.1412   -7.0579    0.0000 O   0  0  0  0  0  0  0  0  0  0  0  0
    9.9947   -7.8661    0.0000 C   0  0  0  0  0  0  0  0  0  0  0  0
    5.7165   -8.7159    0.0000 C   0  0  0  0  0  0  0  0  0  0  0  0
    5.7165   -7.8869    0.0000 C   0  0  0  0  0  0  0  0  0  0  0  0
    6.4289   -9.1283    0.0000 C   0  0  0  0  0  0  0  0  0  0  0  0
    8.5701   -6.2331    0.0000 C   0  0  0  0  0  0  0  0  0  0  0  0
   10.7071   -7.4495    0.0000 F   0  0  0  0  0  0  0  0  0  0  0  0
    5.0000   -9.1283    0.0000 Cl  0  0  0  0  0  0  0  0  0  0  0  0
    8.5742   -8.7034    0.0000 C   0  0  0  0  0  0  0  0  0  0  0  0
    9.2866   -9.1116    0.0000 C   0  0  0  0  0  0  0  0  0  0  0  0
    7.1412   -6.2414    0.0000 C   0  0  0  0  0  0  0  0  0  0  0  0
    7.8494   -5.0000    0.0000 C   0  0  0  0  0  0  0  0  0  0  0  0
   10.0031   -8.6951    0.0000 C   0  0  0  0  0  0  0  0  0  0  0  0
    7.1329   -5.4208    0.0000 C   0  0  0  0  0  0  0  0  0  0  0  0
  2  1  1  0  0  0  0
  3  1  1  0  0  0  0
  4  1  1  0  0  0  0
  5  2  1  0  0  0  0
  6 14  1  0  0  0  0
  7  4  2  0  0  0  0
  8  4  1  0  0  0  0
  9  1  1  0  0  0  0
 10  5  2  0  0  0  0
 11 13  1  0  0  0  0
 12  7  1  0  0  0  0
 13  8  2  0  0  0  0
 14  3  2  0  0  0  0
 15 10  1  0  0  0  0
 16 11  1  0  0  0  0
 17  2  2  0  0  0  0
 18 17  1  0  0  0  0
 19  3  1  0  0  0  0
 20 22  1  0  0  0  0
 21 18  2  0  0  0  0
 22 19  2  0  0  0  0
 11 12  2  0  0  0  0
 20  6  2  0  0  0  0
 10 21  1  0  0  0  0
M  END
> <Molecule Name>
DNDI1325597

> <CDD Number>
CDD-1535250

> <IC50_uM>
0.1 (n=1)

$$$$

SketchEl molfile

 27 30  0  0  0  0  0  0  0  0999 V2000
    7.7023   -7.1527    0.0000 C   0  0  0  0  0  0  0  0  0  0  0  0
    7.2193   -7.8231    0.0000 S   0  0  0  0  0  0  0  0  0  0  0  0
    8.5268   -7.1485    0.0000 C   0  0  0  0  0  0  0  0  0  0  0  0
    7.2110   -6.4865    0.0000 C   0  0  0  0  0  0  0  0  0  0  0  0
   10.1881   -9.9924    0.0000 C   0  0  0  0  0  0  0  0  0  0  0  0
    6.4324   -7.5732    0.0000 C   0  0  0  0  0  0  0  0  0  0  0  0
    6.4282   -6.7488    0.0000 C   0  0  0  0  0  0  0  0  0  0  0  0
    9.7718   -9.2804    0.0000 C   0  0  0  0  0  0  0  0  0  0  0  0
    8.9307   -6.4323    0.0000 C   0  0  0  0  0  0  0  0  0  0  0  0
    8.9432   -7.8605    0.0000 C   0  0  0  0  0  0  0  0  0  0  0  0
    8.9182   -5.0083    0.0000 N   0  0  0  0  0  0  0  0  0  0  0  0
   10.1798   -8.5601    0.0000 C   0  0  0  0  0  0  0  0  0  0  0  0
    8.9473   -9.2846    0.0000 C   0  0  0  0  0  0  0  0  0  0  0  0
    9.7634   -7.8522    0.0000 C   0  0  0  0  0  0  0  0  0  0  0  0
    8.5309   -8.5726    0.0000 C   0  0  0  0  0  0  0  0  0  0  0  0
    9.7801  -10.7086    0.0000 F   0  0  0  0  0  0  0  0  0  0  0  0
   11.0126   -9.9841    0.0000 F   0  0  0  0  0  0  0  0  0  0  0  0
    9.3928  -10.2131    0.0000 F   0  0  0  0  0  0  0  0  0  0  0  0
    7.9397   -6.5614    0.0000 O   0  0  0  0  0  0  0  0  0  0  0  0
    8.5143   -5.7245    0.0000 C   0  0  0  0  0  0  0  0  0  0  0  0
    5.7120   -7.9896    0.0000 C   0  0  0  0  0  0  0  0  0  0  0  0
    5.7120   -6.3366    0.0000 C   0  0  0  0  0  0  0  0  0  0  0  0
    9.7551   -6.4282    0.0000 C   0  0  0  0  0  0  0  0  0  0  0  0
    9.7468   -5.0000    0.0000 C   0  0  0  0  0  0  0  0  0  0  0  0
   10.1632   -5.7120    0.0000 C   0  0  0  0  0  0  0  0  0  0  0  0
    5.0000   -7.5774    0.0000 C   0  0  0  0  0  0  0  0  0  0  0  0
    5.0000   -6.7488    0.0000 C   0  0  0  0  0  0  0  0  0  0  0  0
  2  1  1  0  0  0  0
  3  1  1  0  0  0  0
  4  1  2  0  0  0  0
  5  8  1  0  0  0  0
  6  2  1  0  0  0  0
  7  4  1  0  0  0  0
  8 12  1  0  0  0  0
  9  3  1  0  0  0  0
 10  3  1  0  0  0  0
 11 20  2  0  0  0  0
 12 14  2  0  0  0  0
 13 15  1  0  0  0  0
 14 10  1  0  0  0  0
 15 10  2  0  0  0  0
 16  5  1  0  0  0  0
 17  5  1  0  0  0  0
 18  5  1  0  0  0  0
 19  3  1  0  0  0  0
 20  9  1  0  0  0  0
 21  6  2  0  0  0  0
 22  7  2  0  0  0  0
 23  9  2  0  0  0  0
 24 11  1  0  0  0  0
 25 23  1  0  0  0  0
 26 21  1  0  0  0  0
 27 22  1  0  0  0  0
  6  7  1  0  0  0  0
 24 25  2  0  0  0  0
  8 13  2  0  0  0  0
 26 27  2  0  0  0  0
M  END
> <Molecule Name>
DNDI1325598

> <CDD Number>
CDD-1535251

> <IC50_uM>
0.02 (n=1)

$$$$

SketchEl molfile

 26 28  0  0  0  0  0  0  0  0999 V2000
    5.7125   -9.1290    0.0000 C   0  0  0  0  0  0  0  0  0  0  0  0
    8.5707   -7.4707    0.0000 C   0  0  0  0  0  0  0  0  0  0  0  0
   12.1498   -9.5165    0.0000 N   0  0  0  0  0  0  0  0  0  0  0  0
    6.4291   -8.7165    0.0000 C   0  0  0  0  0  0  0  0  0  0  0  0
   11.4331   -9.1082    0.0000 C   0  0  0  0  0  0  0  0  0  0  0  0
    8.5666   -6.6458    0.0000 C   0  0  0  0  0  0  0  0  0  0  0  0
    7.8582   -7.8874    0.0000 C   0  0  0  0  0  0  0  0  0  0  0  0
    9.2874   -7.8791    0.0000 C   0  0  0  0  0  0  0  0  0  0  0  0
    9.2790   -5.4125    0.0000 N   0  0  0  0  0  0  0  0  0  0  0  0
    6.4291   -7.8874    0.0000 C   0  0  0  0  0  0  0  0  0  0  0  0
    7.1416   -9.1290    0.0000 C   0  0  0  0  0  0  0  0  0  0  0  0
    7.1416   -7.4749    0.0000 C   0  0  0  0  0  0  0  0  0  0  0  0
    7.8582   -8.7165    0.0000 C   0  0  0  0  0  0  0  0  0  0  0  0
    5.7125   -9.9540    0.0000 F   0  0  0  0  0  0  0  0  0  0  0  0
    5.5000   -8.3332    0.0000 F   0  0  0  0  0  0  0  0  0  0  0  0
    5.0000   -8.7165    0.0000 F   0  0  0  0  0  0  0  0  0  0  0  0
    9.9915   -7.4624    0.0000 C   0  0  0  0  0  0  0  0  0  0  0  0
    9.2874   -8.7040    0.0000 C   0  0  0  0  0  0  0  0  0  0  0  0
   10.7165   -8.6957    0.0000 C   0  0  0  0  0  0  0  0  0  0  0  0
    9.1499   -6.8833    0.0000 O   0  0  0  0  0  0  0  0  0  0  0  0
   10.7082   -7.8666    0.0000 C   0  0  0  0  0  0  0  0  0  0  0  0
    9.9998   -9.1124    0.0000 C   0  0  0  0  0  0  0  0  0  0  0  0
    9.2832   -6.2333    0.0000 C   0  0  0  0  0  0  0  0  0  0  0  0
    7.8541   -6.2416    0.0000 C   0  0  0  0  0  0  0  0  0  0  0  0
    8.5624   -5.0000    0.0000 C   0  0  0  0  0  0  0  0  0  0  0  0
    7.8457   -5.4208    0.0000 C   0  0  0  0  0  0  0  0  0  0  0  0
  2  7  1  0  0  0  0
  3  5  3  0  0  0  0
  4  1  1  0  0  0  0
  5 19  1  0  0  0  0
  6  2  1  0  0  0  0
  7 13  1  0  0  0  0
  8  2  1  0  0  0  0
  9 23  1  0  0  0  0
 10  4  2  0  0  0  0
 11  4  1  0  0  0  0
 12 10  1  0  0  0  0
 13 11  2  0  0  0  0
 14  1  1  0  0  0  0
 15  1  1  0  0  0  0
 16  1  1  0  0  0  0
 17  8  1  0  0  0  0
 18  8  2  0  0  0  0
 19 22  2  0  0  0  0
 20  2  1  0  0  0  0
 21 17  2  0  0  0  0
 22 18  1  0  0  0  0
 23  6  2  0  0  0  0
 24  6  1  0  0  0  0
 25 26  1  0  0  0  0
 26 24  2  0  0  0  0
 12  7  2  0  0  0  0
 21 19  1  0  0  0  0
 25  9  2  0  0  0  0
M  END
> <Molecule Name>
DNDI1330083

> <CDD Number>
CDD-1535252

> <IC50_uM>
0.0146969384566991 ร/รท 1.33203404017397 (n=2)

$$$$

SketchEl molfile

 23 25  0  0  0  0  0  0  0  0999 V2000
    7.8576   -7.4702    0.0000 C   0  0  0  0  0  0  0  0  0  0  0  0
    8.5741   -7.8784    0.0000 C   0  0  0  0  0  0  0  0  0  0  0  0
    7.1453   -9.5280    0.0000 N   0  0  0  0  0  0  0  0  0  0  0  0
    7.8576   -9.1156    0.0000 C   0  0  0  0  0  0  0  0  0  0  0  0
    7.8535   -6.6454    0.0000 C   0  0  0  0  0  0  0  0  0  0  0  0
    7.1453   -7.8867    0.0000 C   0  0  0  0  0  0  0  0  0  0  0  0
    8.5741   -8.7032    0.0000 C   0  0  0  0  0  0  0  0  0  0  0  0
    8.5658   -5.4124    0.0000 N   0  0  0  0  0  0  0  0  0  0  0  0
    6.4288   -7.4743    0.0000 C   0  0  0  0  0  0  0  0  0  0  0  0
    7.1453   -8.7157    0.0000 C   0  0  0  0  0  0  0  0  0  0  0  0
    8.4408   -6.8828    0.0000 O   0  0  0  0  0  0  0  0  0  0  0  0
    5.7165   -8.7157    0.0000 C   0  0  0  0  0  0  0  0  0  0  0  0
    6.4288   -9.1281    0.0000 C   0  0  0  0  0  0  0  0  0  0  0  0
    5.7165   -7.8867    0.0000 C   0  0  0  0  0  0  0  0  0  0  0  0
    8.5699   -6.2330    0.0000 C   0  0  0  0  0  0  0  0  0  0  0  0
    5.0000   -9.1281    0.0000 Cl  0  0  0  0  0  0  0  0  0  0  0  0
    9.2781   -7.4618    0.0000 C   0  0  0  0  0  0  0  0  0  0  0  0
    7.1411   -6.2413    0.0000 C   0  0  0  0  0  0  0  0  0  0  0  0
    7.8493   -5.0000    0.0000 C   0  0  0  0  0  0  0  0  0  0  0  0
    9.2864   -9.1114    0.0000 C   0  0  0  0  0  0  0  0  0  0  0  0
    7.1328   -5.4207    0.0000 C   0  0  0  0  0  0  0  0  0  0  0  0
    9.9946   -7.8659    0.0000 C   0  0  0  0  0  0  0  0  0  0  0  0
   10.0029   -8.6949    0.0000 C   0  0  0  0  0  0  0  0  0  0  0  0
  2  1  1  0  0  0  0
  3  4  3  0  0  0  0
  4  7  1  0  0  0  0
  5  1  1  0  0  0  0
  6  1  1  0  0  0  0
  7  2  2  0  0  0  0
  8 15  1  0  0  0  0
  9  6  2  0  0  0  0
 10  6  1  0  0  0  0
 11  1  1  0  0  0  0
 12 13  1  0  0  0  0
 13 10  2  0  0  0  0
 14  9  1  0  0  0  0
 15  5  2  0  0  0  0
 16 12  1  0  0  0  0
 17  2  1  0  0  0  0
 18  5  1  0  0  0  0
 19 21  1  0  0  0  0
 20  7  1  0  0  0  0
 21 18  2  0  0  0  0
 22 17  2  0  0  0  0
 23 20  2  0  0  0  0
 12 14  2  0  0  0  0
 19  8  2  0  0  0  0
 22 23  1  0  0  0  0
M  END
> <Molecule Name>
DNDI1330084

> <CDD Number>
CDD-1535253

> <IC50_uM>
0.062 (n=1)

$$$$

SketchEl molfile

 29 32  0  0  0  0  0  0  0  0999 V2000
    7.8456   -5.4166    0.0000 C   0  0  0  0  0  0  0  0  0  0  0  0
    8.5747   -9.1204    0.0000 C   0  0  0  0  0  0  0  0  0  0  0  0
    7.8581   -8.7121    0.0000 C   0  0  0  0  0  0  0  0  0  0  0  0
    9.2788   -8.7038    0.0000 C   0  0  0  0  0  0  0  0  0  0  0  0
    7.8497   -6.2415    0.0000 C   0  0  0  0  0  0  0  0  0  0  0  0
    7.8539   -7.8872    0.0000 C   0  0  0  0  0  0  0  0  0  0  0  0
    7.1456   -9.1287    0.0000 C   0  0  0  0  0  0  0  0  0  0  0  0
    9.9954   -9.1079    0.0000 C   0  0  0  0  0  0  0  0  0  0  0  0
    8.5747   -9.9453    0.0000 C   0  0  0  0  0  0  0  0  0  0  0  0
   10.7161  -10.3453    0.0000 N   0  0  0  0  0  0  0  0  0  0  0  0
    9.9995   -9.9370    0.0000 C   0  0  0  0  0  0  0  0  0  0  0  0
    8.5663   -6.6540    0.0000 C   0  0  0  0  0  0  0  0  0  0  0  0
    7.1331   -6.6623    0.0000 C   0  0  0  0  0  0  0  0  0  0  0  0
    8.5705   -7.4747    0.0000 C   0  0  0  0  0  0  0  0  0  0  0  0
    7.1415   -7.4831    0.0000 C   0  0  0  0  0  0  0  0  0  0  0  0
    8.5580   -5.0000    0.0000 F   0  0  0  0  0  0  0  0  0  0  0  0
    7.1290   -5.0083    0.0000 F   0  0  0  0  0  0  0  0  0  0  0  0
    8.6413   -5.6249    0.0000 F   0  0  0  0  0  0  0  0  0  0  0  0
    9.2871  -10.3536    0.0000 C   0  0  0  0  0  0  0  0  0  0  0  0
    7.1456   -9.9578    0.0000 C   0  0  0  0  0  0  0  0  0  0  0  0
    6.4290   -8.7163    0.0000 C   0  0  0  0  0  0  0  0  0  0  0  0
    8.4372   -8.1247    0.0000 O   0  0  0  0  0  0  0  0  0  0  0  0
    5.7166   -9.9578    0.0000 C   0  0  0  0  0  0  0  0  0  0  0  0
    5.7166   -9.1329    0.0000 C   0  0  0  0  0  0  0  0  0  0  0  0
    6.4290  -10.3703    0.0000 C   0  0  0  0  0  0  0  0  0  0  0  0
    5.0000  -10.3703    0.0000 Cl  0  0  0  0  0  0  0  0  0  0  0  0
   11.4327   -9.9287    0.0000 C   0  0  0  0  0  0  0  0  0  0  0  0
   10.7078   -8.6913    0.0000 C   0  0  0  0  0  0  0  0  0  0  0  0
   11.4244   -9.0996    0.0000 C   0  0  0  0  0  0  0  0  0  0  0  0
  2  3  1  0  0  0  0
  3  6  1  0  0  0  0
  4  2  1  0  0  0  0
  5  1  1  0  0  0  0
  6 15  1  0  0  0  0
  7  3  1  0  0  0  0
  8  4  2  0  0  0  0
  9  2  2  0  0  0  0
 10 11  1  0  0  0  0
 11  8  1  0  0  0  0
 12  5  2  0  0  0  0
 13  5  1  0  0  0  0
 14 12  1  0  0  0  0
 15 13  2  0  0  0  0
 16  1  1  0  0  0  0
 17  1  1  0  0  0  0
 18  1  1  0  0  0  0
 19  9  1  0  0  0  0
 20  7  1  0  0  0  0
 21  7  2  0  0  0  0
 22  3  1  0  0  0  0
 23 24  2  0  0  0  0
 24 21  1  0  0  0  0
 25 20  2  0  0  0  0
 26 23  1  0  0  0  0
 27 29  1  0  0  0  0
 28  8  1  0  0  0  0
 29 28  2  0  0  0  0
 14  6  2  0  0  0  0
 11 19  2  0  0  0  0
 25 23  1  0  0  0  0
 27 10  2  0  0  0  0
M  END
> <Molecule Name>
DNDI1330085

> <CDD Number>
CDD-1535254

> <IC50_uM>
2.84 (n=1)

$$$$

SketchEl molfile

 24 26  0  0  0  0  0  0  0  0999 V2000
    8.5658   -6.2664    0.0000 C   0  0  0  0  0  0  0  0  0  0  0  0
    5.7123   -8.7491    0.0000 C   0  0  0  0  0  0  0  0  0  0  0  0
    7.8951   -5.7873    0.0000 N   0  0  0  0  0  0  0  0  0  0  0  0
    8.5700   -7.0912    0.0000 C   0  0  0  0  0  0  0  0  0  0  0  0
    9.2323   -5.7832    0.0000 N   0  0  0  0  0  0  0  0  0  0  0  0
    8.1492   -5.0000    0.0000 N   0  0  0  0  0  0  0  0  0  0  0  0
    8.9740   -5.0000    0.0000 C   0  0  0  0  0  0  0  0  0  0  0  0
    6.4288   -8.3367    0.0000 C   0  0  0  0  0  0  0  0  0  0  0  0
    7.8576   -7.5077    0.0000 C   0  0  0  0  0  0  0  0  0  0  0  0
    9.2864   -7.4994    0.0000 C   0  0  0  0  0  0  0  0  0  0  0  0
    7.1411   -8.7491    0.0000 C   0  0  0  0  0  0  0  0  0  0  0  0
    6.4288   -7.5077    0.0000 C   0  0  0  0  0  0  0  0  0  0  0  0
    7.8576   -8.3367    0.0000 C   0  0  0  0  0  0  0  0  0  0  0  0
    7.1411   -7.0953    0.0000 C   0  0  0  0  0  0  0  0  0  0  0  0
    5.0000   -8.3367    0.0000 F   0  0  0  0  0  0  0  0  0  0  0  0
    5.7123   -9.5739    0.0000 F   0  0  0  0  0  0  0  0  0  0  0  0
    5.4999   -7.9535    0.0000 F   0  0  0  0  0  0  0  0  0  0  0  0
    9.2864   -8.3242    0.0000 C   0  0  0  0  0  0  0  0  0  0  0  0
    9.9904   -7.0828    0.0000 C   0  0  0  0  0  0  0  0  0  0  0  0
    9.1490   -6.5038    0.0000 O   0  0  0  0  0  0  0  0  0  0  0  0
   10.7153   -8.3159    0.0000 C   0  0  0  0  0  0  0  0  0  0  0  0
    9.9988   -8.7324    0.0000 C   0  0  0  0  0  0  0  0  0  0  0  0
   10.7069   -7.4869    0.0000 C   0  0  0  0  0  0  0  0  0  0  0  0
   11.4317   -8.7283    0.0000 Cl  0  0  0  0  0  0  0  0  0  0  0  0
  2  8  1  0  0  0  0
  3  1  2  0  0  0  0
  4  1  1  0  0  0  0
  5  1  1  0  0  0  0
  6  3  1  0  0  0  0
  7  5  1  0  0  0  0
  8 12  2  0  0  0  0
  9  4  1  0  0  0  0
 10  4  1  0  0  0  0
 11 13  2  0  0  0  0
 12 14  1  0  0  0  0
 13  9  1  0  0  0  0
 14  9  2  0  0  0  0
 15  2  1  0  0  0  0
 16  2  1  0  0  0  0
 17  2  1  0  0  0  0
 18 10  2  0  0  0  0
 19 10  1  0  0  0  0
 20  4  1  0  0  0  0
 21 22  2  0  0  0  0
 22 18  1  0  0  0  0
 23 19  2  0  0  0  0
 24 21  1  0  0  0  0
  6  7  2  0  0  0  0
 23 21  1  0  0  0  0
 11  8  1  0  0  0  0
M  END
> <Molecule Name>
DNDI1330086

> <CDD Number>
CDD-1535255

> <IC50_uM>
7.42 (n=1)

$$$$

SketchEl molfile

 22 24  0  0  0  0  0  0  0  0999 V2000
    7.1414   -7.4705    0.0000 C   0  0  0  0  0  0  0  0  0  0  0  0
    6.4290   -7.8872    0.0000 C   0  0  0  0  0  0  0  0  0  0  0  0
    7.1373   -6.6456    0.0000 C   0  0  0  0  0  0  0  0  0  0  0  0
    7.8580   -7.8788    0.0000 C   0  0  0  0  0  0  0  0  0  0  0  0
    5.7124   -7.4747    0.0000 C   0  0  0  0  0  0  0  0  0  0  0  0
    6.4165   -5.4207    0.0000 N   0  0  0  0  0  0  0  0  0  0  0  0
    8.5621   -7.4622    0.0000 C   0  0  0  0  0  0  0  0  0  0  0  0
    7.8580   -8.7037    0.0000 C   0  0  0  0  0  0  0  0  0  0  0  0
    7.7206   -6.8831    0.0000 O   0  0  0  0  0  0  0  0  0  0  0  0
    5.7083   -6.6498    0.0000 Cl  0  0  0  0  0  0  0  0  0  0  0  0
    8.5705   -9.1120    0.0000 C   0  0  0  0  0  0  0  0  0  0  0  0
    9.2787   -7.8663    0.0000 C   0  0  0  0  0  0  0  0  0  0  0  0
    6.4249   -6.2415    0.0000 C   0  0  0  0  0  0  0  0  0  0  0  0
    9.2871   -8.6954    0.0000 C   0  0  0  0  0  0  0  0  0  0  0  0
    6.4290   -8.7162    0.0000 C   0  0  0  0  0  0  0  0  0  0  0  0
    7.8539   -6.2332    0.0000 C   0  0  0  0  0  0  0  0  0  0  0  0
    7.1331   -5.0000    0.0000 C   0  0  0  0  0  0  0  0  0  0  0  0
    5.0000   -7.8872    0.0000 C   0  0  0  0  0  0  0  0  0  0  0  0
   10.0037   -9.1079    0.0000 C   0  0  0  0  0  0  0  0  0  0  0  0
    7.8497   -5.4124    0.0000 C   0  0  0  0  0  0  0  0  0  0  0  0
    5.7124   -9.1287    0.0000 C   0  0  0  0  0  0  0  0  0  0  0  0
    5.0000   -8.7162    0.0000 C   0  0  0  0  0  0  0  0  0  0  0  0
  2  1  1  0  0  0  0
  3  1  1  0  0  0  0
  4  1  1  0  0  0  0
  5  2  2  0  0  0  0
  6 13  2  0  0  0  0
  7  4  1  0  0  0  0
  8  4  2  0  0  0  0
  9  1  1  0  0  0  0
 10  5  1  0  0  0  0
 11  8  1  0  0  0  0
 12  7  2  0  0  0  0
 13  3  1  0  0  0  0
 14 11  2  0  0  0  0
 15  2  1  0  0  0  0
 16  3  2  0  0  0  0
 17  6  1  0  0  0  0
 18  5  1  0  0  0  0
 19 14  1  0  0  0  0
 20 16  1  0  0  0  0
 21 15  2  0  0  0  0
 22 21  1  0  0  0  0
 17 20  2  0  0  0  0
 12 14  1  0  0  0  0
 22 18  2  0  0  0  0
M  END
> <Molecule Name>
DNDI1330087

> <CDD Number>
CDD-1535256

> <IC50_uM>
0.07 (n=1)

$$$$

SketchEl molfile

 19 20  0  0  0  0  0  0  0  0999 V2000
    7.1411   -7.0661    0.0000 C   0  0  0  0  0  0  0  0  0  0  0  0
    8.5699   -7.0619    0.0000 C   0  0  0  0  0  0  0  0  0  0  0  0
    9.2822   -7.4743    0.0000 C   0  0  0  0  0  0  0  0  0  0  0  0
    7.8576   -7.4743    0.0000 C   0  0  0  0  0  0  0  0  0  0  0  0
    9.9945   -7.0578    0.0000 C   0  0  0  0  0  0  0  0  0  0  0  0
    6.4288   -7.4827    0.0000 C   0  0  0  0  0  0  0  0  0  0  0  0
    7.1369   -6.2413    0.0000 N   0  0  0  0  0  0  0  0  0  0  0  0
    5.7123   -8.7240    0.0000 N   0  0  0  0  0  0  0  0  0  0  0  0
    8.5615   -6.2413    0.0000 C   0  0  0  0  0  0  0  0  0  0  0  0
    9.9945   -6.2330    0.0000 C   0  0  0  0  0  0  0  0  0  0  0  0
    9.2822   -8.2991    0.0000 Cl  0  0  0  0  0  0  0  0  0  0  0  0
    9.2697   -5.8248    0.0000 C   0  0  0  0  0  0  0  0  0  0  0  0
    7.8492   -5.8248    0.0000 O   0  0  0  0  0  0  0  0  0  0  0  0
   10.7068   -5.8164    0.0000 Cl  0  0  0  0  0  0  0  0  0  0  0  0
    6.4288   -8.3116    0.0000 C   0  0  0  0  0  0  0  0  0  0  0  0
    5.7123   -7.0703    0.0000 C   0  0  0  0  0  0  0  0  0  0  0  0
    5.0000   -8.3116    0.0000 C   0  0  0  0  0  0  0  0  0  0  0  0
    7.8451   -5.0000    0.0000 C   0  0  0  0  0  0  0  0  0  0  0  0
    5.0000   -7.4868    0.0000 C   0  0  0  0  0  0  0  0  0  0  0  0
  2  4  1  0  0  0  0
  3  2  2  0  0  0  0
  4  1  1  0  0  0  0
  5  3  1  0  0  0  0
  6  1  1  0  0  0  0
  7  1  2  0  0  0  0
  8 15  2  0  0  0  0
  9  2  1  0  0  0  0
 10 12  1  0  0  0  0
 11  3  1  0  0  0  0
 12  9  2  0  0  0  0
  7 13  1  0  0  0  0
 14 10  1  0  0  0  0
 15  6  1  0  0  0  0
 16  6  2  0  0  0  0
 17 19  2  0  0  0  0
 18 13  1  0  0  0  0
 19 16  1  0  0  0  0
  8 17  1  0  0  0  0
 10  5  2  0  0  0  0
M  END
> <Molecule Name>
DNDI1330088

> <CDD Number>
CDD-1535257

> <IC50_uM>
2.14 (n=1)

$$$$

SketchEl molfile

 15 16  0  0  0  0  0  0  0  0999 V2000
    7.1407   -6.0722    0.0000 C   0  0  0  0  0  0  0  0  0  0  0  0
    6.4285   -6.4886    0.0000 C   0  0  0  0  0  0  0  0  0  0  0  0
    7.8570   -6.4803    0.0000 C   0  0  0  0  0  0  0  0  0  0  0  0
    5.7122   -7.7297    0.0000 N   0  0  0  0  0  0  0  0  0  0  0  0
    7.8570   -7.3049    0.0000 C   0  0  0  0  0  0  0  0  0  0  0  0
    8.5608   -6.0638    0.0000 C   0  0  0  0  0  0  0  0  0  0  0  0
    9.2855   -7.2966    0.0000 C   0  0  0  0  0  0  0  0  0  0  0  0
    7.1365   -5.2475    0.0000 O   0  0  0  0  0  0  0  0  0  0  0  0
    9.2771   -6.4678    0.0000 C   0  0  0  0  0  0  0  0  0  0  0  0
    8.5691   -7.7130    0.0000 C   0  0  0  0  0  0  0  0  0  0  0  0
   10.0018   -7.7089    0.0000 Cl  0  0  0  0  0  0  0  0  0  0  0  0
    6.4285   -7.3174    0.0000 C   0  0  0  0  0  0  0  0  0  0  0  0
    5.7122   -6.0763    0.0000 C   0  0  0  0  0  0  0  0  0  0  0  0
    5.0000   -7.3174    0.0000 C   0  0  0  0  0  0  0  0  0  0  0  0
    5.0000   -6.4886    0.0000 C   0  0  0  0  0  0  0  0  0  0  0  0
  2  1  1  0  0  0  0
  3  1  1  0  0  0  0
  4 12  2  0  0  0  0
  5  3  2  0  0  0  0
  6  3  1  0  0  0  0
  7  9  1  0  0  0  0
  1  8  1  0  0  0  0
  9  6  2  0  0  0  0
 10  5  1  0  0  0  0
 11  7  1  0  0  0  0
 12  2  1  0  0  0  0
 13  2  2  0  0  0  0
 14 15  2  0  0  0  0
 15 13  1  0  0  0  0
  7 10  2  0  0  0  0
  4 14  1  0  0  0  0
M  END
> <Molecule Name>
DNDI1330089

> <CDD Number>
CDD-1535146

> <IC50_uM>
4.75 (n=1)

$$$$

SketchEl molfile

 22 24  0  0  0  0  0  0  0  0999 V2000
    7.1379   -7.8880    0.0000 N   0  0  0  0  0  0  0  0  0  0  0  0
    7.1420   -8.7131    0.0000 C   0  0  0  0  0  0  0  0  0  0  0  0
    6.4294   -9.1298    0.0000 C   0  0  0  0  0  0  0  0  0  0  0  0
    7.8588   -9.1215    0.0000 C   0  0  0  0  0  0  0  0  0  0  0  0
    5.7126  -10.3717    0.0000 N   0  0  0  0  0  0  0  0  0  0  0  0
    7.8588   -9.9466    0.0000 C   0  0  0  0  0  0  0  0  0  0  0  0
    8.5631   -8.7048    0.0000 C   0  0  0  0  0  0  0  0  0  0  0  0
    7.8505   -7.4712    0.0000 C   0  0  0  0  0  0  0  0  0  0  0  0
    9.2882   -9.9383    0.0000 C   0  0  0  0  0  0  0  0  0  0  0  0
    9.2799   -9.1090    0.0000 C   0  0  0  0  0  0  0  0  0  0  0  0
    8.5714  -10.3550    0.0000 C   0  0  0  0  0  0  0  0  0  0  0  0
   10.0050  -10.3509    0.0000 Cl  0  0  0  0  0  0  0  0  0  0  0  0
    6.4294   -9.9591    0.0000 C   0  0  0  0  0  0  0  0  0  0  0  0
    7.8463   -6.6461    0.0000 C   0  0  0  0  0  0  0  0  0  0  0  0
    5.7126   -8.7173    0.0000 C   0  0  0  0  0  0  0  0  0  0  0  0
    5.0000   -9.9591    0.0000 C   0  0  0  0  0  0  0  0  0  0  0  0
    8.5589   -6.2335    0.0000 C   0  0  0  0  0  0  0  0  0  0  0  0
    7.1337   -6.2419    0.0000 C   0  0  0  0  0  0  0  0  0  0  0  0
    5.0000   -9.1340    0.0000 C   0  0  0  0  0  0  0  0  0  0  0  0
    7.1254   -5.4209    0.0000 C   0  0  0  0  0  0  0  0  0  0  0  0
    8.5589   -5.4125    0.0000 C   0  0  0  0  0  0  0  0  0  0  0  0
    7.8421   -5.0000    0.0000 C   0  0  0  0  0  0  0  0  0  0  0  0
  2  1  1  0  0  0  0
  3  2  1  0  0  0  0
  4  2  1  0  0  0  0
  5 13  2  0  0  0  0
  6  4  2  0  0  0  0
  7  4  1  0  0  0  0
  8  1  1  0  0  0  0
  9 10  1  0  0  0  0
 10  7  2  0  0  0  0
 11  6  1  0  0  0  0
 12  9  1  0  0  0  0
 13  3  1  0  0  0  0
 14  8  1  0  0  0  0
 15  3  2  0  0  0  0
 16  5  1  0  0  0  0
 17 14  2  0  0  0  0
 18 14  1  0  0  0  0
 19 15  1  0  0  0  0
 20 18  2  0  0  0  0
 21 17  1  0  0  0  0
 22 20  1  0  0  0  0
  9 11  2  0  0  0  0
 16 19  2  0  0  0  0
 22 21  2  0  0  0  0
M  END
> <Molecule Name>
DNDI1330090

> <CDD Number>
CDD-1535258

> <IC50_uM>
0.096 (n=1)

$$$$

SketchEl molfile

 25 27  0  0  0  0  0  0  0  0999 V2000
    6.4307   -5.4138    0.0000 C   0  0  0  0  0  0  0  0  0  0  0  0
    7.1463   -6.6575    0.0000 C   0  0  0  0  0  0  0  0  0  0  0  0
    7.8618   -5.4102    0.0000 N   0  0  0  0  0  0  0  0  0  0  0  0
    7.1444   -5.0000    0.0000 C   0  0  0  0  0  0  0  0  0  0  0  0
    7.1461   -7.4847    0.0000 C   0  0  0  0  0  0  0  0  0  0  0  0
    6.4295   -7.8982    0.0000 C   0  0  0  0  0  0  0  0  0  0  0  0
    5.7167   -7.4813    0.0000 C   0  0  0  0  0  0  0  0  0  0  0  0
    5.0007   -7.8940    0.0000 C   0  0  0  0  0  0  0  0  0  0  0  0
    5.0000   -8.7222    0.0000 C   0  0  0  0  0  0  0  0  0  0  0  0
    5.7214   -9.1358    0.0000 C   0  0  0  0  0  0  0  0  0  0  0  0
    6.4344   -8.7207    0.0000 C   0  0  0  0  0  0  0  0  0  0  0  0
    7.8568   -7.8956    0.0000 C   0  0  0  0  0  0  0  0  0  0  0  0
    7.8535   -8.7177    0.0000 C   0  0  0  0  0  0  0  0  0  0  0  0
    8.5634   -9.1285    0.0000 C   0  0  0  0  0  0  0  0  0  0  0  0
    9.2757   -8.7184    0.0000 C   0  0  0  0  0  0  0  0  0  0  0  0
    9.2735   -7.8932    0.0000 C   0  0  0  0  0  0  0  0  0  0  0  0
    8.5630   -7.4860    0.0000 C   0  0  0  0  0  0  0  0  0  0  0  0
    7.8434   -6.2470    0.0000 C   0  0  0  0  0  0  0  0  0  0  0  0
    5.7193   -6.6540    0.0000 Cl  0  0  0  0  0  0  0  0  0  0  0  0
    6.4231   -6.2411    0.0000 C   0  0  0  0  0  0  0  0  0  0  0  0
    8.5609   -6.6588    0.0000 C   0  0  0  0  0  0  0  0  0  0  0  0
    9.2762   -6.2433    0.0000 F   0  0  0  0  0  0  0  0  0  0  0  0
    9.3567   -6.8678    0.0000 F   0  0  0  0  0  0  0  0  0  0  0  0
    7.8401   -7.0642    0.0000 F   0  0  0  0  0  0  0  0  0  0  0  0
    7.1382   -8.3093    0.0000 O   0  0  0  0  0  0  0  0  0  0  0  0
 17 21  1  0  0  0  0
 21 22  1  0  0  0  0
 21 23  1  0  0  0  0
 21 24  1  0  0  0  0
  1 20  2  0  0  0  0
 20  2  1  0  0  0  0
  2 18  2  0  0  0  0
 18  3  1  0  0  0  0
  3  4  2  0  0  0  0
  4  1  1  0  0  0  0
  2  5  1  0  0  0  0
  5  6  1  0  0  0  0
  6  7  2  0  0  0  0
  7  8  1  0  0  0  0
  8  9  2  0  0  0  0
  9 10  1  0  0  0  0
 10 11  2  0  0  0  0
 11  6  1  0  0  0  0
  5 12  1  0  0  0  0
 12 13  2  0  0  0  0
 13 14  1  0  0  0  0
 14 15  2  0  0  0  0
 15 16  1  0  0  0  0
 16 17  2  0  0  0  0
 17 12  1  0  0  0  0
  7 19  1  0  0  0  0
  5 25  1  0  0  0  0
M  END
> <Molecule Name>
DNDI1332841

> <CDD Number>
CDD-1535259

> <IC50_uM>
0.297 (n=1)

$$$$

SketchEl molfile

 26 29  0  0  0  0  0  0  0  0999 V2000
    5.0012  -10.3626    0.0000 C   0  0  0  0  0  0  0  0  0  0  0  0
    5.0000  -11.1900    0.0000 C   0  0  0  0  0  0  0  0  0  0  0  0
    5.7148  -11.6029    0.0000 N   0  0  0  0  0  0  0  0  0  0  0  0
    6.4313  -11.1895    0.0000 C   0  0  0  0  0  0  0  0  0  0  0  0
    6.4284  -10.3590    0.0000 C   0  0  0  0  0  0  0  0  0  0  0  0
    5.7130   -9.9498    0.0000 C   0  0  0  0  0  0  0  0  0  0  0  0
    7.1414   -9.9438    0.0000 C   0  0  0  0  0  0  0  0  0  0  0  0
    7.8574  -10.3536    0.0000 C   0  0  0  0  0  0  0  0  0  0  0  0
    7.1383   -9.1188    0.0000 N   0  0  0  0  0  0  0  0  0  0  0  0
    7.8572  -11.1763    0.0000 C   0  0  0  0  0  0  0  0  0  0  0  0
    8.5724  -11.5860    0.0000 C   0  0  0  0  0  0  0  0  0  0  0  0
    9.2863  -11.1708    0.0000 C   0  0  0  0  0  0  0  0  0  0  0  0
    9.2805  -10.3415    0.0000 C   0  0  0  0  0  0  0  0  0  0  0  0
    8.5648   -9.9355    0.0000 C   0  0  0  0  0  0  0  0  0  0  0  0
    7.8564   -8.7057    0.0000 C   0  0  0  0  0  0  0  0  0  0  0  0
    7.8552   -7.8843    0.0000 C   0  0  0  0  0  0  0  0  0  0  0  0
    7.1410   -7.4706    0.0000 N   0  0  0  0  0  0  0  0  0  0  0  0
    6.4263   -7.8846    0.0000 C   0  0  0  0  0  0  0  0  0  0  0  0
    6.4257   -8.7123    0.0000 C   0  0  0  0  0  0  0  0  0  0  0  0
    7.1410   -6.6456    0.0000 C   0  0  0  0  0  0  0  0  0  0  0  0
    7.8549   -6.2377    0.0000 C   0  0  0  0  0  0  0  0  0  0  0  0
    7.8553   -5.4134    0.0000 C   0  0  0  0  0  0  0  0  0  0  0  0
    7.1402   -5.0000    0.0000 C   0  0  0  0  0  0  0  0  0  0  0  0
    6.4234   -5.4170    0.0000 C   0  0  0  0  0  0  0  0  0  0  0  0
    6.4265   -6.2399    0.0000 C   0  0  0  0  0  0  0  0  0  0  0  0
   10.0029  -11.5796    0.0000 Cl  0  0  0  0  0  0  0  0  0  0  0  0
  1  2  2  0  0  0  0
  2  3  1  0  0  0  0
  3  4  2  0  0  0  0
  4  5  1  0  0  0  0
  5  6  2  0  0  0  0
  6  1  1  0  0  0  0
  5  7  1  0  0  0  0
  7  8  1  0  0  0  0
  7  9  1  0  0  0  0
  8 10  2  0  0  0  0
 10 11  1  0  0  0  0
 11 12  2  0  0  0  0
 12 13  1  0  0  0  0
 13 14  2  0  0  0  0
 14  8  1  0  0  0  0
  9 15  1  0  0  0  0
  9 19  1  0  0  0  0
 15 16  1  0  0  0  0
 16 17  1  0  0  0  0
 17 18  1  0  0  0  0
 18 19  1  0  0  0  0
 17 20  1  0  0  0  0
 20 21  2  0  0  0  0
 21 22  1  0  0  0  0
 22 23  2  0  0  0  0
 23 24  1  0  0  0  0
 24 25  2  0  0  0  0
 25 20  1  0  0  0  0
 12 26  1  0  0  0  0
M  END
> <Molecule Name>
DNDI1332842

> <CDD Number>
CDD-1535260

> <IC50_uM>
0.034 (n=1)

$$$$

SketchEl molfile

 22 24  0  0  0  0  0  0  0  0999 V2000
    5.0012   -9.1297    0.0000 C   0  0  0  0  0  0  0  0  0  0  0  0
    5.0000   -9.9570    0.0000 C   0  0  0  0  0  0  0  0  0  0  0  0
    5.7148  -10.3699    0.0000 N   0  0  0  0  0  0  0  0  0  0  0  0
    6.4312   -9.9566    0.0000 C   0  0  0  0  0  0  0  0  0  0  0  0
    6.4283   -9.1261    0.0000 C   0  0  0  0  0  0  0  0  0  0  0  0
    5.7130   -8.7170    0.0000 C   0  0  0  0  0  0  0  0  0  0  0  0
    7.1412   -8.7109    0.0000 C   0  0  0  0  0  0  0  0  0  0  0  0
    7.8572   -9.1207    0.0000 C   0  0  0  0  0  0  0  0  0  0  0  0
    7.1381   -7.8860    0.0000 N   0  0  0  0  0  0  0  0  0  0  0  0
    7.8569   -9.9433    0.0000 C   0  0  0  0  0  0  0  0  0  0  0  0
    8.5721  -10.3530    0.0000 C   0  0  0  0  0  0  0  0  0  0  0  0
    9.2860   -9.9378    0.0000 C   0  0  0  0  0  0  0  0  0  0  0  0
    9.2802   -9.1086    0.0000 C   0  0  0  0  0  0  0  0  0  0  0  0
    8.5645   -8.7026    0.0000 C   0  0  0  0  0  0  0  0  0  0  0  0
    7.8510   -7.4708    0.0000 C   0  0  0  0  0  0  0  0  0  0  0  0
    7.8479   -6.6458    0.0000 C   0  0  0  0  0  0  0  0  0  0  0  0
    8.5653   -6.2351    0.0000 C   0  0  0  0  0  0  0  0  0  0  0  0
    8.5642   -5.4137    0.0000 C   0  0  0  0  0  0  0  0  0  0  0  0
    7.8500   -5.0000    0.0000 C   0  0  0  0  0  0  0  0  0  0  0  0
    7.1353   -5.4140    0.0000 C   0  0  0  0  0  0  0  0  0  0  0  0
    7.1348   -6.2416    0.0000 C   0  0  0  0  0  0  0  0  0  0  0  0
   10.0025  -10.3466    0.0000 Cl  0  0  0  0  0  0  0  0  0  0  0  0
  1  2  2  0  0  0  0
  2  3  1  0  0  0  0
  3  4  2  0  0  0  0
  4  5  1  0  0  0  0
  5  6  2  0  0  0  0
  6  1  1  0  0  0  0
  5  7  1  0  0  0  0
  7  8  1  0  0  0  0
  7  9  1  0  0  0  0
  8 10  2  0  0  0  0
 10 11  1  0  0  0  0
 11 12  2  0  0  0  0
 12 13  1  0  0  0  0
 13 14  2  0  0  0  0
 14  8  1  0  0  0  0
  9 15  1  0  0  0  0
 15 16  1  0  0  0  0
 16 17  1  0  0  0  0
 16 21  1  0  0  0  0
 17 18  1  0  0  0  0
 18 19  1  0  0  0  0
 19 20  1  0  0  0  0
 20 21  1  0  0  0  0
 12 22  1  0  0  0  0
M  END
> <Molecule Name>
DNDI1332843

> <CDD Number>
CDD-1535261

> <IC50_uM>
0.032 (n=1)

$$$$

SketchEl molfile

 23 25  0  0  0  0  0  0  0  0999 V2000
    5.7160   -7.8893    0.0000 C   0  0  0  0  0  0  0  0  0  0  0  0
    5.7149   -8.7168    0.0000 C   0  0  0  0  0  0  0  0  0  0  0  0
    6.4298   -9.1297    0.0000 C   0  0  0  0  0  0  0  0  0  0  0  0
    7.1463   -8.7163    0.0000 C   0  0  0  0  0  0  0  0  0  0  0  0
    7.1434   -7.8857    0.0000 C   0  0  0  0  0  0  0  0  0  0  0  0
    6.4279   -7.4765    0.0000 C   0  0  0  0  0  0  0  0  0  0  0  0
    7.8564   -7.4705    0.0000 C   0  0  0  0  0  0  0  0  0  0  0  0
    8.5725   -7.8803    0.0000 C   0  0  0  0  0  0  0  0  0  0  0  0
    7.8533   -6.6454    0.0000 C   0  0  0  0  0  0  0  0  0  0  0  0
    7.8510   -8.2936    0.0000 O   0  0  0  0  0  0  0  0  0  0  0  0
    8.5722   -8.7030    0.0000 C   0  0  0  0  0  0  0  0  0  0  0  0
    9.2875   -9.1128    0.0000 C   0  0  0  0  0  0  0  0  0  0  0  0
   10.0015   -8.6975    0.0000 C   0  0  0  0  0  0  0  0  0  0  0  0
    9.9957   -7.8682    0.0000 C   0  0  0  0  0  0  0  0  0  0  0  0
    9.2799   -7.4622    0.0000 C   0  0  0  0  0  0  0  0  0  0  0  0
    8.5680   -6.2350    0.0000 C   0  0  0  0  0  0  0  0  0  0  0  0
    8.5653   -5.4107    0.0000 N   0  0  0  0  0  0  0  0  0  0  0  0
    7.8486   -5.0000    0.0000 C   0  0  0  0  0  0  0  0  0  0  0  0
    7.1333   -5.4197    0.0000 C   0  0  0  0  0  0  0  0  0  0  0  0
    7.1396   -6.2426    0.0000 C   0  0  0  0  0  0  0  0  0  0  0  0
    7.8583   -9.1167    0.0000 F   0  0  0  0  0  0  0  0  0  0  0  0
    9.2725   -6.6371    0.0000 F   0  0  0  0  0  0  0  0  0  0  0  0
    5.0000   -9.1288    0.0000 Cl  0  0  0  0  0  0  0  0  0  0  0  0
  1  2  2  0  0  0  0
  2  3  1  0  0  0  0
  3  4  2  0  0  0  0
  4  5  1  0  0  0  0
  5  6  2  0  0  0  0
  6  1  1  0  0  0  0
  5  7  1  0  0  0  0
  7  8  1  0  0  0  0
  7  9  1  0  0  0  0
  7 10  1  0  0  0  0
  8 11  2  0  0  0  0
 11 12  1  0  0  0  0
 12 13  2  0  0  0  0
 13 14  1  0  0  0  0
 14 15  2  0  0  0  0
 15  8  1  0  0  0  0
  9 16  2  0  0  0  0
 16 17  1  0  0  0  0
 17 18  2  0  0  0  0
 18 19  1  0  0  0  0
 19 20  2  0  0  0  0
 20  9  1  0  0  0  0
 11 21  1  0  0  0  0
 15 22  1  0  0  0  0
  2 23  1  0  0  0  0
M  END
> <Molecule Name>
DNDI1332844

> <CDD Number>
CDD-1535262

> <IC50_uM>
0.08 (n=1)

$$$$

SketchEl molfile

 23 25  0  0  0  0  0  0  0  0999 V2000
    5.7160   -7.8893    0.0000 C   0  0  0  0  0  0  0  0  0  0  0  0
    5.7149   -8.7168    0.0000 C   0  0  0  0  0  0  0  0  0  0  0  0
    6.4298   -9.1297    0.0000 C   0  0  0  0  0  0  0  0  0  0  0  0
    7.1463   -8.7163    0.0000 C   0  0  0  0  0  0  0  0  0  0  0  0
    7.1434   -7.8857    0.0000 C   0  0  0  0  0  0  0  0  0  0  0  0
    6.4279   -7.4765    0.0000 C   0  0  0  0  0  0  0  0  0  0  0  0
    7.8564   -7.4705    0.0000 C   0  0  0  0  0  0  0  0  0  0  0  0
    8.5725   -7.8803    0.0000 C   0  0  0  0  0  0  0  0  0  0  0  0
    7.8533   -6.6454    0.0000 C   0  0  0  0  0  0  0  0  0  0  0  0
    7.8510   -8.2936    0.0000 O   0  0  0  0  0  0  0  0  0  0  0  0
    8.5722   -8.7030    0.0000 C   0  0  0  0  0  0  0  0  0  0  0  0
    9.2875   -9.1128    0.0000 C   0  0  0  0  0  0  0  0  0  0  0  0
   10.0015   -8.6975    0.0000 C   0  0  0  0  0  0  0  0  0  0  0  0
    9.9957   -7.8682    0.0000 C   0  0  0  0  0  0  0  0  0  0  0  0
    9.2799   -7.4622    0.0000 C   0  0  0  0  0  0  0  0  0  0  0  0
    8.5680   -6.2350    0.0000 C   0  0  0  0  0  0  0  0  0  0  0  0
    8.5653   -5.4107    0.0000 N   0  0  0  0  0  0  0  0  0  0  0  0
    7.8486   -5.0000    0.0000 C   0  0  0  0  0  0  0  0  0  0  0  0
    7.1333   -5.4197    0.0000 C   0  0  0  0  0  0  0  0  0  0  0  0
    7.1396   -6.2426    0.0000 C   0  0  0  0  0  0  0  0  0  0  0  0
    9.2725   -6.6371    0.0000 F   0  0  0  0  0  0  0  0  0  0  0  0
    5.0000   -9.1288    0.0000 Cl  0  0  0  0  0  0  0  0  0  0  0  0
   10.7072   -7.4504    0.0000 F   0  0  0  0  0  0  0  0  0  0  0  0
  1  2  2  0  0  0  0
  2  3  1  0  0  0  0
  3  4  2  0  0  0  0
  4  5  1  0  0  0  0
  5  6  2  0  0  0  0
  6  1  1  0  0  0  0
  5  7  1  0  0  0  0
  7  8  1  0  0  0  0
  7  9  1  0  0  0  0
  7 10  1  0  0  0  0
  8 11  2  0  0  0  0
 11 12  1  0  0  0  0
 12 13  2  0  0  0  0
 13 14  1  0  0  0  0
 14 15  2  0  0  0  0
 15  8  1  0  0  0  0
  9 16  2  0  0  0  0
 16 17  1  0  0  0  0
 17 18  2  0  0  0  0
 18 19  1  0  0  0  0
 19 20  2  0  0  0  0
 20  9  1  0  0  0  0
 15 21  1  0  0  0  0
  2 22  1  0  0  0  0
 14 23  1  0  0  0  0
M  END
> <Molecule Name>
DNDI1332845

> <CDD Number>
CDD-1535263

> <IC50_uM>
0.107 (n=1)

$$$$

SketchEl molfile

 23 25  0  0  0  0  0  0  0  0999 V2000
    5.7160   -7.8893    0.0000 C   0  0  0  0  0  0  0  0  0  0  0  0
    5.7149   -8.7168    0.0000 C   0  0  0  0  0  0  0  0  0  0  0  0
    6.4298   -9.1297    0.0000 C   0  0  0  0  0  0  0  0  0  0  0  0
    7.1463   -8.7163    0.0000 C   0  0  0  0  0  0  0  0  0  0  0  0
    7.1434   -7.8857    0.0000 C   0  0  0  0  0  0  0  0  0  0  0  0
    6.4279   -7.4765    0.0000 C   0  0  0  0  0  0  0  0  0  0  0  0
    7.8564   -7.4705    0.0000 C   0  0  0  0  0  0  0  0  0  0  0  0
    8.5725   -7.8803    0.0000 C   0  0  0  0  0  0  0  0  0  0  0  0
    7.8533   -6.6454    0.0000 C   0  0  0  0  0  0  0  0  0  0  0  0
    7.8510   -8.2936    0.0000 O   0  0  0  0  0  0  0  0  0  0  0  0
    8.5722   -8.7031    0.0000 C   0  0  0  0  0  0  0  0  0  0  0  0
    9.2875   -9.1128    0.0000 C   0  0  0  0  0  0  0  0  0  0  0  0
   10.0015   -8.6975    0.0000 C   0  0  0  0  0  0  0  0  0  0  0  0
    9.9957   -7.8682    0.0000 C   0  0  0  0  0  0  0  0  0  0  0  0
    9.2799   -7.4622    0.0000 C   0  0  0  0  0  0  0  0  0  0  0  0
    8.5680   -6.2350    0.0000 C   0  0  0  0  0  0  0  0  0  0  0  0
    8.5653   -5.4107    0.0000 N   0  0  0  0  0  0  0  0  0  0  0  0
    7.8486   -5.0000    0.0000 C   0  0  0  0  0  0  0  0  0  0  0  0
    7.1333   -5.4197    0.0000 C   0  0  0  0  0  0  0  0  0  0  0  0
    7.1396   -6.2426    0.0000 C   0  0  0  0  0  0  0  0  0  0  0  0
    9.2725   -6.6371    0.0000 F   0  0  0  0  0  0  0  0  0  0  0  0
    5.0000   -9.1288    0.0000 Cl  0  0  0  0  0  0  0  0  0  0  0  0
    9.2902   -9.9379    0.0000 F   0  0  0  0  0  0  0  0  0  0  0  0
  1  2  2  0  0  0  0
  2  3  1  0  0  0  0
  3  4  2  0  0  0  0
  4  5  1  0  0  0  0
  5  6  2  0  0  0  0
  6  1  1  0  0  0  0
  5  7  1  0  0  0  0
  7  8  1  0  0  0  0
  7  9  1  0  0  0  0
  7 10  1  0  0  0  0
  8 11  2  0  0  0  0
 11 12  1  0  0  0  0
 12 13  2  0  0  0  0
 13 14  1  0  0  0  0
 14 15  2  0  0  0  0
 15  8  1  0  0  0  0
  9 16  2  0  0  0  0
 16 17  1  0  0  0  0
 17 18  2  0  0  0  0
 18 19  1  0  0  0  0
 19 20  2  0  0  0  0
 20  9  1  0  0  0  0
 15 21  1  0  0  0  0
  2 22  1  0  0  0  0
 12 23  1  0  0  0  0
M  END
> <Molecule Name>
DNDI1332846

> <CDD Number>
CDD-1535264

> <IC50_uM>
0.044 (n=1)

$$$$

SketchEl molfile

 29 32  0  0  0  0  0  0  0  0999 V2000
    5.7161   -8.7149    0.0000 C   0  0  0  0  0  0  0  0  0  0  0  0
    5.7150   -9.5425    0.0000 C   0  0  0  0  0  0  0  0  0  0  0  0
    6.4300   -9.9555    0.0000 C   0  0  0  0  0  0  0  0  0  0  0  0
    7.1466   -9.5420    0.0000 C   0  0  0  0  0  0  0  0  0  0  0  0
    7.1437   -8.7113    0.0000 C   0  0  0  0  0  0  0  0  0  0  0  0
    6.4282   -8.3021    0.0000 C   0  0  0  0  0  0  0  0  0  0  0  0
    7.8568   -8.2960    0.0000 C   0  0  0  0  0  0  0  0  0  0  0  0
    8.5730   -8.7059    0.0000 C   0  0  0  0  0  0  0  0  0  0  0  0
    7.8537   -7.4708    0.0000 C   0  0  0  0  0  0  0  0  0  0  0  0
    7.8514   -9.1192    0.0000 O   0  0  0  0  0  0  0  0  0  0  0  0
    8.5685   -7.0603    0.0000 C   0  0  0  0  0  0  0  0  0  0  0  0
    8.5658   -6.2359    0.0000 C   0  0  0  0  0  0  0  0  0  0  0  0
    7.8491   -5.8252    0.0000 C   0  0  0  0  0  0  0  0  0  0  0  0
    7.1336   -6.2449    0.0000 C   0  0  0  0  0  0  0  0  0  0  0  0
    7.1399   -7.0680    0.0000 C   0  0  0  0  0  0  0  0  0  0  0  0
    8.5727   -9.5287    0.0000 C   0  0  0  0  0  0  0  0  0  0  0  0
    9.9964   -8.6938    0.0000 N   0  0  0  0  0  0  0  0  0  0  0  0
    9.2805   -8.2877    0.0000 C   0  0  0  0  0  0  0  0  0  0  0  0
   10.0022   -9.5232    0.0000 C   0  0  0  0  0  0  0  0  0  0  0  0
    9.2875   -9.9373    0.0000 C   0  0  0  0  0  0  0  0  0  0  0  0
    9.2898  -10.7613    0.0000 C   0  0  0  0  0  0  0  0  0  0  0  0
   10.0059  -11.1723    0.0000 C   0  0  0  0  0  0  0  0  0  0  0  0
   10.7213  -10.7532    0.0000 C   0  0  0  0  0  0  0  0  0  0  0  0
   10.7155   -9.9305    0.0000 C   0  0  0  0  0  0  0  0  0  0  0  0
    7.8448   -5.0000    0.0000 Cl  0  0  0  0  0  0  0  0  0  0  0  0
    5.0000   -9.9545    0.0000 C   0  0  0  0  0  0  0  0  0  0  0  0
    4.2857   -9.5414    0.0000 F   0  0  0  0  0  0  0  0  0  0  0  0
    4.9993  -10.7797    0.0000 F   0  0  0  0  0  0  0  0  0  0  0  0
    4.7871   -9.1573    0.0000 F   0  0  0  0  0  0  0  0  0  0  0  0
  2 26  1  0  0  0  0
 26 27  1  0  0  0  0
 26 28  1  0  0  0  0
 26 29  1  0  0  0  0
  1  2  2  0  0  0  0
  2  3  1  0  0  0  0
  3  4  2  0  0  0  0
  4  5  1  0  0  0  0
  5  6  2  0  0  0  0
  6  1  1  0  0  0  0
  5  7  1  0  0  0  0
  7  8  1  0  0  0  0
  7  9  1  0  0  0  0
  7 10  1  0  0  0  0
  9 11  2  0  0  0  0
 11 12  1  0  0  0  0
 12 13  2  0  0  0  0
 13 14  1  0  0  0  0
 14 15  2  0  0  0  0
 15  9  1  0  0  0  0
  8 16  2  0  0  0  0
 16 20  1  0  0  0  0
 19 17  1  0  0  0  0
 17 18  2  0  0  0  0
 18  8  1  0  0  0  0
 19 20  1  0  0  0  0
 20 21  2  0  0  0  0
 21 22  1  0  0  0  0
 22 23  2  0  0  0  0
 23 24  1  0  0  0  0
 24 19  2  0  0  0  0
 13 25  1  0  0  0  0
M  END
> <Molecule Name>
DNDI1332847

> <CDD Number>
CDD-1535265

> <IC50_uM>
> 1.0 (n=1)

$$$$

SketchEl molfile

 26 28  0  0  0  0  0  0  0  0999 V2000
    5.7160   -8.7144    0.0000 C   0  0  0  0  0  0  0  0  0  0  0  0
    5.7149   -9.5419    0.0000 C   0  0  0  0  0  0  0  0  0  0  0  0
    6.4297   -9.9548    0.0000 C   0  0  0  0  0  0  0  0  0  0  0  0
    7.1462   -9.5414    0.0000 C   0  0  0  0  0  0  0  0  0  0  0  0
    7.1434   -8.7108    0.0000 C   0  0  0  0  0  0  0  0  0  0  0  0
    6.4279   -8.3016    0.0000 C   0  0  0  0  0  0  0  0  0  0  0  0
    7.8564   -8.2955    0.0000 C   0  0  0  0  0  0  0  0  0  0  0  0
    8.5725   -8.7054    0.0000 C   0  0  0  0  0  0  0  0  0  0  0  0
    7.8533   -7.4705    0.0000 C   0  0  0  0  0  0  0  0  0  0  0  0
    7.8510   -9.1187    0.0000 O   0  0  0  0  0  0  0  0  0  0  0  0
    8.5722   -9.5281    0.0000 C   0  0  0  0  0  0  0  0  0  0  0  0
    9.2874   -9.9379    0.0000 N   0  0  0  0  0  0  0  0  0  0  0  0
   10.0014   -9.5226    0.0000 C   0  0  0  0  0  0  0  0  0  0  0  0
    9.9956   -8.6933    0.0000 C   0  0  0  0  0  0  0  0  0  0  0  0
    9.2798   -8.2872    0.0000 N   0  0  0  0  0  0  0  0  0  0  0  0
    8.5680   -7.0601    0.0000 C   0  0  0  0  0  0  0  0  0  0  0  0
    8.5652   -6.2358    0.0000 C   0  0  0  0  0  0  0  0  0  0  0  0
    7.8486   -5.8251    0.0000 C   0  0  0  0  0  0  0  0  0  0  0  0
    7.1333   -6.2448    0.0000 C   0  0  0  0  0  0  0  0  0  0  0  0
    7.1396   -7.0677    0.0000 C   0  0  0  0  0  0  0  0  0  0  0  0
    7.8444   -5.0000    0.0000 Cl  0  0  0  0  0  0  0  0  0  0  0  0
   10.7180   -9.9315    0.0000 C   0  0  0  0  0  0  0  0  0  0  0  0
    5.0000   -9.9538    0.0000 C   0  0  0  0  0  0  0  0  0  0  0  0
    4.2858   -9.5407    0.0000 F   0  0  0  0  0  0  0  0  0  0  0  0
    4.9993  -10.7789    0.0000 F   0  0  0  0  0  0  0  0  0  0  0  0
    4.7871   -9.1567    0.0000 F   0  0  0  0  0  0  0  0  0  0  0  0
  2 23  1  0  0  0  0
 23 24  1  0  0  0  0
 23 25  1  0  0  0  0
 23 26  1  0  0  0  0
  1  2  2  0  0  0  0
  2  3  1  0  0  0  0
  3  4  2  0  0  0  0
  4  5  1  0  0  0  0
  5  6  2  0  0  0  0
  6  1  1  0  0  0  0
  5  7  1  0  0  0  0
  7  8  1  0  0  0  0
  7  9  1  0  0  0  0
  7 10  1  0  0  0  0
  8 11  2  0  0  0  0
 11 12  1  0  0  0  0
 12 13  2  0  0  0  0
 13 14  1  0  0  0  0
 14 15  2  0  0  0  0
 15  8  1  0  0  0  0
  9 16  2  0  0  0  0
 16 17  1  0  0  0  0
 17 18  2  0  0  0  0
 18 19  1  0  0  0  0
 19 20  2  0  0  0  0
 20  9  1  0  0  0  0
 18 21  1  0  0  0  0
 13 22  1  0  0  0  0
M  END
> <Molecule Name>
DNDI1332848

> <CDD Number>
CDD-1535266

> <IC50_uM>
> 1.0 (n=1)

$$$$

SketchEl molfile

 23 25  0  0  0  0  0  0  0  0999 V2000
    5.0012   -9.1287    0.0000 C   0  0  0  0  0  0  0  0  0  0  0  0
    5.0000   -9.9560    0.0000 C   0  0  0  0  0  0  0  0  0  0  0  0
    5.7147  -10.3688    0.0000 N   0  0  0  0  0  0  0  0  0  0  0  0
    6.4310   -9.9555    0.0000 C   0  0  0  0  0  0  0  0  0  0  0  0
    6.4282   -9.1251    0.0000 C   0  0  0  0  0  0  0  0  0  0  0  0
    5.7129   -8.7160    0.0000 C   0  0  0  0  0  0  0  0  0  0  0  0
    7.1410   -8.7100    0.0000 C   0  0  0  0  0  0  0  0  0  0  0  0
    7.8569   -9.1197    0.0000 C   0  0  0  0  0  0  0  0  0  0  0  0
    7.1379   -7.8851    0.0000 N   0  0  0  0  0  0  0  0  0  0  0  0
    7.8558   -7.4722    0.0000 C   0  0  0  0  0  0  0  0  0  0  0  0
    7.8547   -6.6509    0.0000 C   0  0  0  0  0  0  0  0  0  0  0  0
    7.1406   -6.2373    0.0000 N   0  0  0  0  0  0  0  0  0  0  0  0
    6.4260   -6.6512    0.0000 C   0  0  0  0  0  0  0  0  0  0  0  0
    6.4254   -7.4787    0.0000 C   0  0  0  0  0  0  0  0  0  0  0  0
    7.1406   -5.4124    0.0000 C   0  0  0  0  0  0  0  0  0  0  0  0
    7.8550   -5.0000    0.0000 C   0  0  0  0  0  0  0  0  0  0  0  0
    6.4263   -5.0000    0.0000 O   0  0  0  0  0  0  0  0  0  0  0  0
    7.8566   -9.9423    0.0000 C   0  0  0  0  0  0  0  0  0  0  0  0
    8.5717  -10.3519    0.0000 C   0  0  0  0  0  0  0  0  0  0  0  0
    9.2855   -9.9367    0.0000 C   0  0  0  0  0  0  0  0  0  0  0  0
    9.2797   -9.1076    0.0000 C   0  0  0  0  0  0  0  0  0  0  0  0
    8.5641   -8.7017    0.0000 C   0  0  0  0  0  0  0  0  0  0  0  0
   10.0020  -10.3455    0.0000 Cl  0  0  0  0  0  0  0  0  0  0  0  0
  1  2  2  0  0  0  0
  2  3  1  0  0  0  0
  3  4  2  0  0  0  0
  4  5  1  0  0  0  0
  5  6  2  0  0  0  0
  6  1  1  0  0  0  0
  5  7  1  0  0  0  0
  7  8  1  0  0  0  0
  7  9  1  0  0  0  0
  9 10  1  0  0  0  0
  9 14  1  0  0  0  0
 10 11  1  0  0  0  0
 11 12  1  0  0  0  0
 12 13  1  0  0  0  0
 13 14  1  0  0  0  0
 12 15  1  0  0  0  0
 15 16  1  0  0  0  0
 15 17  2  0  0  0  0
  8 18  2  0  0  0  0
 18 19  1  0  0  0  0
 19 20  2  0  0  0  0
 20 21  1  0  0  0  0
 21 22  2  0  0  0  0
 22  8  1  0  0  0  0
 20 23  1  0  0  0  0
M  END
> <Molecule Name>
DNDI1335908

> <CDD Number>
CDD-1535267

> <IC50_uM>
0.396703856244982 ร/รท 1.43581910213704 (n=4)

$$$$

SketchEl molfile

 17 18  0  0  0  0  0  0  0  0999 V2000
    5.0012   -7.4833    0.0000 C   0  0  0  0  0  0  0  0  0  0  0  0
    5.0000   -8.3104    0.0000 C   0  0  0  0  0  0  0  0  0  0  0  0
    5.7146   -8.7232    0.0000 N   0  0  0  0  0  0  0  0  0  0  0  0
    6.4309   -8.3100    0.0000 C   0  0  0  0  0  0  0  0  0  0  0  0
    6.4280   -7.4797    0.0000 C   0  0  0  0  0  0  0  0  0  0  0  0
    5.7128   -7.0706    0.0000 C   0  0  0  0  0  0  0  0  0  0  0  0
    7.1407   -7.0646    0.0000 C   0  0  0  0  0  0  0  0  0  0  0  0
    7.8566   -7.4743    0.0000 C   0  0  0  0  0  0  0  0  0  0  0  0
    7.8563   -8.2967    0.0000 C   0  0  0  0  0  0  0  0  0  0  0  0
    8.5713   -8.7063    0.0000 C   0  0  0  0  0  0  0  0  0  0  0  0
    9.2850   -8.2912    0.0000 C   0  0  0  0  0  0  0  0  0  0  0  0
    9.2792   -7.4622    0.0000 C   0  0  0  0  0  0  0  0  0  0  0  0
    8.5637   -7.0563    0.0000 C   0  0  0  0  0  0  0  0  0  0  0  0
   10.0014   -8.6999    0.0000 Cl  0  0  0  0  0  0  0  0  0  0  0  0
    7.1376   -6.2398    0.0000 N   0  0  0  0  0  0  0  0  0  0  0  0
    7.8503   -5.8247    0.0000 O   0  0  0  0  0  0  0  0  0  0  0  0
    7.8472   -5.0000    0.0000 C   0  0  0  0  0  0  0  0  0  0  0  0
  1  2  2  0  0  0  0
  2  3  1  0  0  0  0
  3  4  2  0  0  0  0
  4  5  1  0  0  0  0
  5  6  2  0  0  0  0
  6  1  1  0  0  0  0
  5  7  1  0  0  0  0
  7  8  1  0  0  0  0
  8  9  2  0  0  0  0
  9 10  1  0  0  0  0
 10 11  2  0  0  0  0
 11 12  1  0  0  0  0
 12 13  2  0  0  0  0
 13  8  1  0  0  0  0
 11 14  1  0  0  0  0
  7 15  2  0  0  0  0
 15 16  1  0  0  0  0
 16 17  1  0  0  0  0
M  END
> <Molecule Name>
DNDI1335909

> <CDD Number>
CDD-1535268

> <IC50_uM>
> 1.0 (n=1)

$$$$

SketchEl molfile

 21 23  0  0  0  0  0  0  0  0999 V2000
    5.0012   -8.7163    0.0000 C   0  0  0  0  0  0  0  0  0  0  0  0
    5.0000   -9.5435    0.0000 C   0  0  0  0  0  0  0  0  0  0  0  0
    5.7147   -9.9563    0.0000 N   0  0  0  0  0  0  0  0  0  0  0  0
    6.4310   -9.5430    0.0000 C   0  0  0  0  0  0  0  0  0  0  0  0
    6.4282   -8.7126    0.0000 C   0  0  0  0  0  0  0  0  0  0  0  0
    5.7129   -8.3036    0.0000 C   0  0  0  0  0  0  0  0  0  0  0  0
    7.1410   -8.2975    0.0000 C   0  0  0  0  0  0  0  0  0  0  0  0
    7.8569   -8.7072    0.0000 C   0  0  0  0  0  0  0  0  0  0  0  0
    7.8566   -9.5298    0.0000 C   0  0  0  0  0  0  0  0  0  0  0  0
    8.5717   -9.9394    0.0000 C   0  0  0  0  0  0  0  0  0  0  0  0
    9.2855   -9.5242    0.0000 C   0  0  0  0  0  0  0  0  0  0  0  0
    9.2797   -8.6951    0.0000 C   0  0  0  0  0  0  0  0  0  0  0  0
    8.5640   -8.2892    0.0000 C   0  0  0  0  0  0  0  0  0  0  0  0
    7.1379   -7.4726    0.0000 N   0  0  0  0  0  0  0  0  0  0  0  0
    7.8558   -7.0597    0.0000 C   0  0  0  0  0  0  0  0  0  0  0  0
    7.8547   -6.2385    0.0000 C   0  0  0  0  0  0  0  0  0  0  0  0
    7.1406   -5.8248    0.0000 C   0  0  0  0  0  0  0  0  0  0  0  0
    6.4260   -6.2387    0.0000 C   0  0  0  0  0  0  0  0  0  0  0  0
    6.4254   -7.0662    0.0000 C   0  0  0  0  0  0  0  0  0  0  0  0
    7.1406   -5.0000    0.0000 O   0  0  0  0  0  0  0  0  0  0  0  0
   10.0019   -9.9330    0.0000 Cl  0  0  0  0  0  0  0  0  0  0  0  0
  1  2  2  0  0  0  0
  2  3  1  0  0  0  0
  3  4  2  0  0  0  0
  4  5  1  0  0  0  0
  5  6  2  0  0  0  0
  6  1  1  0  0  0  0
  5  7  1  0  0  0  0
  7  8  1  0  0  0  0
  8  9  2  0  0  0  0
  9 10  1  0  0  0  0
 10 11  2  0  0  0  0
 11 12  1  0  0  0  0
 12 13  2  0  0  0  0
 13  8  1  0  0  0  0
  7 14  1  0  0  0  0
 14 15  1  0  0  0  0
 14 19  1  0  0  0  0
 15 16  1  0  0  0  0
 16 17  1  0  0  0  0
 17 18  1  0  0  0  0
 18 19  1  0  0  0  0
 17 20  1  0  0  0  0
 11 21  1  0  0  0  0
M  END
> <Molecule Name>
DNDI1335910

> <CDD Number>
CDD-1535269

> <IC50_uM>
0.8 (n=1)

$$$$

SketchEl molfile

 19 20  0  0  0  0  0  0  0  0999 V2000
    5.0012   -9.1288    0.0000 C   0  0  0  0  0  0  0  0  0  0  0  0
    5.0000   -9.9559    0.0000 C   0  0  0  0  0  0  0  0  0  0  0  0
    5.7146  -10.3687    0.0000 N   0  0  0  0  0  0  0  0  0  0  0  0
    6.4309   -9.9555    0.0000 C   0  0  0  0  0  0  0  0  0  0  0  0
    6.4280   -9.1252    0.0000 C   0  0  0  0  0  0  0  0  0  0  0  0
    5.7128   -8.7161    0.0000 C   0  0  0  0  0  0  0  0  0  0  0  0
    7.1407   -8.7101    0.0000 C   0  0  0  0  0  0  0  0  0  0  0  0
    7.8566   -9.1198    0.0000 C   0  0  0  0  0  0  0  0  0  0  0  0
    7.1376   -7.8853    0.0000 N   0  0  0  0  0  0  0  0  0  0  0  0
    7.8504   -7.4702    0.0000 C   0  0  0  0  0  0  0  0  0  0  0  0
    7.8473   -6.6454    0.0000 C   0  0  0  0  0  0  0  0  0  0  0  0
    8.5645   -6.2348    0.0000 C   0  0  0  0  0  0  0  0  0  0  0  0
    8.5634   -5.4136    0.0000 C   0  0  0  0  0  0  0  0  0  0  0  0
    7.8494   -5.0000    0.0000 C   0  0  0  0  0  0  0  0  0  0  0  0
    7.1348   -5.4139    0.0000 C   0  0  0  0  0  0  0  0  0  0  0  0
    7.1343   -6.2413    0.0000 C   0  0  0  0  0  0  0  0  0  0  0  0
    8.5693   -8.7047    0.0000 C   0  0  0  0  0  0  0  0  0  0  0  0
    9.2851   -9.1144    0.0000 C   0  0  0  0  0  0  0  0  0  0  0  0
    9.9979   -8.6993    0.0000 C   0  0  0  0  0  0  0  0  0  0  0  0
  1  2  2  0  0  0  0
  2  3  1  0  0  0  0
  3  4  2  0  0  0  0
  4  5  1  0  0  0  0
  5  6  2  0  0  0  0
  6  1  1  0  0  0  0
  5  7  1  0  0  0  0
  7  8  1  0  0  0  0
  7  9  1  0  0  0  0
  9 10  1  0  0  0  0
 10 11  1  0  0  0  0
 11 12  1  0  0  0  0
 11 16  1  0  0  0  0
 12 13  1  0  0  0  0
 13 14  1  0  0  0  0
 14 15  1  0  0  0  0
 15 16  1  0  0  0  0
  8 17  1  0  0  0  0
 17 18  1  0  0  0  0
 18 19  1  0  0  0  0
M  END
> <Molecule Name>
DNDI1335911

> <CDD Number>
CDD-1535270

> <IC50_uM>
0.45 (n=1)

$$$$

SketchEl molfile

 26 28  0  0  0  0  0  0  0  0999 V2000
    5.7160   -7.8893    0.0000 C   0  0  0  0  0  0  0  0  0  0  0  0
    5.7149   -8.7167    0.0000 C   0  0  0  0  0  0  0  0  0  0  0  0
    6.4297   -9.1296    0.0000 C   0  0  0  0  0  0  0  0  0  0  0  0
    7.1462   -8.7162    0.0000 C   0  0  0  0  0  0  0  0  0  0  0  0
    7.1434   -7.8856    0.0000 C   0  0  0  0  0  0  0  0  0  0  0  0
    6.4279   -7.4765    0.0000 C   0  0  0  0  0  0  0  0  0  0  0  0
    7.8564   -7.4704    0.0000 C   0  0  0  0  0  0  0  0  0  0  0  0
    8.5725   -7.8802    0.0000 C   0  0  0  0  0  0  0  0  0  0  0  0
    7.8533   -6.6453    0.0000 C   0  0  0  0  0  0  0  0  0  0  0  0
    7.8510   -8.2935    0.0000 O   0  0  0  0  0  0  0  0  0  0  0  0
    8.5722   -8.7030    0.0000 C   0  0  0  0  0  0  0  0  0  0  0  0
    9.2874   -9.1127    0.0000 C   0  0  0  0  0  0  0  0  0  0  0  0
   10.0014   -8.6974    0.0000 C   0  0  0  0  0  0  0  0  0  0  0  0
    9.9956   -7.8681    0.0000 C   0  0  0  0  0  0  0  0  0  0  0  0
    9.2798   -7.4621    0.0000 C   0  0  0  0  0  0  0  0  0  0  0  0
    8.5680   -6.2349    0.0000 C   0  0  0  0  0  0  0  0  0  0  0  0
    8.5652   -5.4106    0.0000 N   0  0  0  0  0  0  0  0  0  0  0  0
    7.8486   -5.0000    0.0000 C   0  0  0  0  0  0  0  0  0  0  0  0
    7.1333   -5.4196    0.0000 C   0  0  0  0  0  0  0  0  0  0  0  0
    7.1396   -6.2426    0.0000 C   0  0  0  0  0  0  0  0  0  0  0  0
    6.4255   -6.6514    0.0000 F   0  0  0  0  0  0  0  0  0  0  0  0
    5.0000   -9.1287    0.0000 Cl  0  0  0  0  0  0  0  0  0  0  0  0
   10.7180   -9.1063    0.0000 C   0  0  0  0  0  0  0  0  0  0  0  0
   10.7222   -9.9314    0.0000 F   0  0  0  0  0  0  0  0  0  0  0  0
   11.4305   -8.6902    0.0000 F   0  0  0  0  0  0  0  0  0  0  0  0
   10.1376   -9.6927    0.0000 F   0  0  0  0  0  0  0  0  0  0  0  0
 13 23  1  0  0  0  0
 23 24  1  0  0  0  0
 23 25  1  0  0  0  0
 23 26  1  0  0  0  0
  1  2  2  0  0  0  0
  2  3  1  0  0  0  0
  3  4  2  0  0  0  0
  4  5  1  0  0  0  0
  5  6  2  0  0  0  0
  6  1  1  0  0  0  0
  5  7  1  0  0  0  0
  7  8  1  0  0  0  0
  7  9  1  0  0  0  0
  7 10  1  0  0  0  0
  8 11  2  0  0  0  0
 11 12  1  0  0  0  0
 12 13  2  0  0  0  0
 13 14  1  0  0  0  0
 14 15  2  0  0  0  0
 15  8  1  0  0  0  0
  9 16  2  0  0  0  0
 16 17  1  0  0  0  0
 17 18  2  0  0  0  0
 18 19  1  0  0  0  0
 19 20  2  0  0  0  0
 20  9  1  0  0  0  0
  6 21  1  0  0  0  0
  2 22  1  0  0  0  0
M  END
> <Molecule Name>
DNDI1335912

> <CDD Number>
CDD-1535271

> <IC50_uM>
0.00177 (n=1)

$$$$

SketchEl molfile

 28 30  0  0  0  0  0  0  0  0999 V2000
    7.1451   -7.8893    0.0000 C   0  0  0  0  0  0  0  0  0  0  0  0
    7.1439   -8.7167    0.0000 C   0  0  0  0  0  0  0  0  0  0  0  0
    7.8588   -9.1296    0.0000 C   0  0  0  0  0  0  0  0  0  0  0  0
    8.5753   -8.7162    0.0000 C   0  0  0  0  0  0  0  0  0  0  0  0
    8.5724   -7.8856    0.0000 C   0  0  0  0  0  0  0  0  0  0  0  0
    7.8570   -7.4765    0.0000 C   0  0  0  0  0  0  0  0  0  0  0  0
    9.2854   -7.4704    0.0000 C   0  0  0  0  0  0  0  0  0  0  0  0
   10.0015   -7.8803    0.0000 C   0  0  0  0  0  0  0  0  0  0  0  0
    9.2823   -6.6454    0.0000 C   0  0  0  0  0  0  0  0  0  0  0  0
    9.2800   -8.2935    0.0000 O   0  0  0  0  0  0  0  0  0  0  0  0
   10.0012   -8.7030    0.0000 C   0  0  0  0  0  0  0  0  0  0  0  0
   10.7165   -9.1127    0.0000 C   0  0  0  0  0  0  0  0  0  0  0  0
   11.4304   -8.6975    0.0000 C   0  0  0  0  0  0  0  0  0  0  0  0
   11.4247   -7.8681    0.0000 C   0  0  0  0  0  0  0  0  0  0  0  0
   10.7088   -7.4621    0.0000 C   0  0  0  0  0  0  0  0  0  0  0  0
    9.9970   -6.2350    0.0000 C   0  0  0  0  0  0  0  0  0  0  0  0
    9.9943   -5.4107    0.0000 N   0  0  0  0  0  0  0  0  0  0  0  0
    9.2777   -5.0000    0.0000 C   0  0  0  0  0  0  0  0  0  0  0  0
    8.5623   -5.4197    0.0000 C   0  0  0  0  0  0  0  0  0  0  0  0
    8.5686   -6.2426    0.0000 C   0  0  0  0  0  0  0  0  0  0  0  0
   12.1471   -9.1063    0.0000 C   0  0  0  0  0  0  0  0  0  0  0  0
   12.1513   -9.9314    0.0000 F   0  0  0  0  0  0  0  0  0  0  0  0
   12.8595   -8.6902    0.0000 F   0  0  0  0  0  0  0  0  0  0  0  0
   11.5666   -9.6927    0.0000 F   0  0  0  0  0  0  0  0  0  0  0  0
    6.4291   -9.1287    0.0000 O   0  0  0  0  0  0  0  0  0  0  0  0
    5.7149   -8.7156    0.0000 C   0  0  0  0  0  0  0  0  0  0  0  0
    5.0000   -9.1276    0.0000 C   0  0  0  0  0  0  0  0  0  0  0  0
    5.7155   -7.8905    0.0000 C   0  0  0  0  0  0  0  0  0  0  0  0
 13 21  1  0  0  0  0
 21 22  1  0  0  0  0
 21 23  1  0  0  0  0
 21 24  1  0  0  0  0
  1  2  2  0  0  0  0
  2  3  1  0  0  0  0
  3  4  2  0  0  0  0
  4  5  1  0  0  0  0
  5  6  2  0  0  0  0
  6  1  1  0  0  0  0
  5  7  1  0  0  0  0
  7  8  1  0  0  0  0
  7  9  1  0  0  0  0
  7 10  1  0  0  0  0
  8 11  2  0  0  0  0
 11 12  1  0  0  0  0
 12 13  2  0  0  0  0
 13 14  1  0  0  0  0
 14 15  2  0  0  0  0
 15  8  1  0  0  0  0
  9 16  2  0  0  0  0
 16 17  1  0  0  0  0
 17 18  2  0  0  0  0
 18 19  1  0  0  0  0
 19 20  2  0  0  0  0
 20  9  1  0  0  0  0
  2 25  1  0  0  0  0
 25 26  1  0  0  0  0
 26 27  1  0  0  0  0
 26 28  1  0  0  0  0
M  END
> <Molecule Name>
DNDI1335913

> <CDD Number>
CDD-1535272

> <IC50_uM>
0.00373 (n=1)

$$$$

SketchEl molfile

 23 25  0  0  0  0  0  0  0  0999 V2000
    5.7160   -7.8893    0.0000 C   0  0  0  0  0  0  0  0  0  0  0  0
    5.7149   -8.7168    0.0000 C   0  0  0  0  0  0  0  0  0  0  0  0
    6.4298   -9.1297    0.0000 C   0  0  0  0  0  0  0  0  0  0  0  0
    7.1463   -8.7163    0.0000 C   0  0  0  0  0  0  0  0  0  0  0  0
    7.1434   -7.8857    0.0000 C   0  0  0  0  0  0  0  0  0  0  0  0
    6.4279   -7.4765    0.0000 C   0  0  0  0  0  0  0  0  0  0  0  0
    7.8564   -7.4705    0.0000 C   0  0  0  0  0  0  0  0  0  0  0  0
    8.5725   -7.8803    0.0000 C   0  0  0  0  0  0  0  0  0  0  0  0
    7.8533   -6.6454    0.0000 C   0  0  0  0  0  0  0  0  0  0  0  0
    7.8510   -8.2936    0.0000 O   0  0  0  0  0  0  0  0  0  0  0  0
    8.5722   -8.7030    0.0000 C   0  0  0  0  0  0  0  0  0  0  0  0
    9.2875   -9.1128    0.0000 C   0  0  0  0  0  0  0  0  0  0  0  0
   10.0015   -8.6975    0.0000 C   0  0  0  0  0  0  0  0  0  0  0  0
    9.9957   -7.8682    0.0000 C   0  0  0  0  0  0  0  0  0  0  0  0
    9.2799   -7.4622    0.0000 C   0  0  0  0  0  0  0  0  0  0  0  0
    8.5680   -6.2350    0.0000 C   0  0  0  0  0  0  0  0  0  0  0  0
    8.5653   -5.4107    0.0000 N   0  0  0  0  0  0  0  0  0  0  0  0
    7.8486   -5.0000    0.0000 C   0  0  0  0  0  0  0  0  0  0  0  0
    7.1333   -5.4197    0.0000 C   0  0  0  0  0  0  0  0  0  0  0  0
    7.1396   -6.2426    0.0000 C   0  0  0  0  0  0  0  0  0  0  0  0
    6.4255   -6.6514    0.0000 F   0  0  0  0  0  0  0  0  0  0  0  0
    5.0000   -9.1288    0.0000 F   0  0  0  0  0  0  0  0  0  0  0  0
   10.7181   -9.1064    0.0000 Cl  0  0  0  0  0  0  0  0  0  0  0  0
  1  2  2  0  0  0  0
  2  3  1  0  0  0  0
  3  4  2  0  0  0  0
  4  5  1  0  0  0  0
  5  6  2  0  0  0  0
  6  1  1  0  0  0  0
  5  7  1  0  0  0  0
  7  8  1  0  0  0  0
  7  9  1  0  0  0  0
  7 10  1  0  0  0  0
  8 11  2  0  0  0  0
 11 12  1  0  0  0  0
 12 13  2  0  0  0  0
 13 14  1  0  0  0  0
 14 15  2  0  0  0  0
 15  8  1  0  0  0  0
  9 16  2  0  0  0  0
 16 17  1  0  0  0  0
 17 18  2  0  0  0  0
 18 19  1  0  0  0  0
 19 20  2  0  0  0  0
 20  9  1  0  0  0  0
  6 21  1  0  0  0  0
  2 22  1  0  0  0  0
 13 23  1  0  0  0  0
M  END
> <Molecule Name>
DNDI1335914

> <CDD Number>
CDD-1535273

> <IC50_uM>
0.0164 (n=1)

$$$$

SketchEl molfile

 22 23  0  0  0  0  0  0  0  0999 V2000
    5.0012   -6.7213    0.0000 C   0  0  0  0  0  0  0  0  0  0  0  0
    5.0000   -7.5480    0.0000 C   0  0  0  0  0  0  0  0  0  0  0  0
    5.7142   -7.9606    0.0000 N   0  0  0  0  0  0  0  0  0  0  0  0
    6.4301   -7.5475    0.0000 C   0  0  0  0  0  0  0  0  0  0  0  0
    6.4272   -6.7177    0.0000 C   0  0  0  0  0  0  0  0  0  0  0  0
    5.7124   -6.3089    0.0000 C   0  0  0  0  0  0  0  0  0  0  0  0
    7.1395   -6.3029    0.0000 C   0  0  0  0  0  0  0  0  0  0  0  0
    7.8550   -6.7123    0.0000 C   0  0  0  0  0  0  0  0  0  0  0  0
    6.5513   -5.7139    0.0000 O   0  0  0  0  0  0  0  0  0  0  0  0
    7.7212   -5.7139    0.0000 C   0  0  0  0  0  0  0  0  0  0  0  0
    7.8547   -7.5343    0.0000 C   0  0  0  0  0  0  0  0  0  0  0  0
    8.5693   -7.9437    0.0000 C   0  0  0  0  0  0  0  0  0  0  0  0
    9.2826   -7.5288    0.0000 C   0  0  0  0  0  0  0  0  0  0  0  0
    9.2769   -6.7002    0.0000 C   0  0  0  0  0  0  0  0  0  0  0  0
    8.5617   -6.2945    0.0000 C   0  0  0  0  0  0  0  0  0  0  0  0
    8.5455   -5.7139    0.0000 C   0  0  0  0  0  0  0  0  0  0  0  0
    8.9577   -5.0000    0.0000 C   0  0  0  0  0  0  0  0  0  0  0  0
    9.7820   -5.0000    0.0000 C   0  0  0  0  0  0  0  0  0  0  0  0
    9.9986   -7.9373    0.0000 O   0  0  0  0  0  0  0  0  0  0  0  0
   10.0028   -8.7616    0.0000 C   0  0  0  0  0  0  0  0  0  0  0  0
   10.7188   -9.1701    0.0000 C   0  0  0  0  0  0  0  0  0  0  0  0
    9.2910   -9.1774    0.0000 C   0  0  0  0  0  0  0  0  0  0  0  0
  1  2  2  0  0  0  0
  2  3  1  0  0  0  0
  3  4  2  0  0  0  0
  4  5  1  0  0  0  0
  5  6  2  0  0  0  0
  6  1  1  0  0  0  0
  5  7  1  0  0  0  0
  7  8  1  0  0  0  0
  7  9  1  0  0  0  0
  7 10  1  0  0  0  0
  8 11  2  0  0  0  0
 11 12  1  0  0  0  0
 12 13  2  0  0  0  0
 13 14  1  0  0  0  0
 14 15  2  0  0  0  0
 15  8  1  0  0  0  0
 10 16  1  0  0  0  0
 16 17  1  0  0  0  0
 17 18  1  0  0  0  0
 13 19  1  0  0  0  0
 19 20  1  0  0  0  0
 20 21  1  0  0  0  0
 20 22  1  0  0  0  0
M  END
> <Molecule Name>
DNDI1335915

> <CDD Number>
CDD-1535274

> <IC50_uM>
0.017 (n=1)

$$$$

SketchEl molfile

 30 33  0  0  0  0  0  0  0  0999 V2000
    8.7655   -8.7123    0.0000 C   0  0  0  0  0  0  0  0  0  0  0  0
    9.4788   -8.2969    0.0000 C   0  0  0  0  0  0  0  0  0  0  0  0
   10.1952   -8.7069    0.0000 C   0  0  0  0  0  0  0  0  0  0  0  0
    9.4757   -7.4715    0.0000 C   0  0  0  0  0  0  0  0  0  0  0  0
    9.4734   -9.1204    0.0000 O   0  0  0  0  0  0  0  0  0  0  0  0
   10.1949   -9.5300    0.0000 C   0  0  0  0  0  0  0  0  0  0  0  0
   10.9105   -9.9400    0.0000 C   0  0  0  0  0  0  0  0  0  0  0  0
   11.6248   -9.5245    0.0000 C   0  0  0  0  0  0  0  0  0  0  0  0
   11.6190   -8.6948    0.0000 C   0  0  0  0  0  0  0  0  0  0  0  0
   10.9029   -8.2886    0.0000 C   0  0  0  0  0  0  0  0  0  0  0  0
   10.1907   -7.0609    0.0000 C   0  0  0  0  0  0  0  0  0  0  0  0
   10.1880   -6.2362    0.0000 C   0  0  0  0  0  0  0  0  0  0  0  0
    9.4710   -5.8254    0.0000 C   0  0  0  0  0  0  0  0  0  0  0  0
    8.7554   -6.2452    0.0000 C   0  0  0  0  0  0  0  0  0  0  0  0
    8.7617   -7.0685    0.0000 C   0  0  0  0  0  0  0  0  0  0  0  0
   12.3417   -9.9336    0.0000 Cl  0  0  0  0  0  0  0  0  0  0  0  0
    9.4668   -4.9999    0.0000 C   0  0  0  0  0  0  0  0  0  0  0  0
   10.1796   -4.5836    0.0000 F   0  0  0  0  0  0  0  0  0  0  0  0
    8.7499   -4.5909    0.0000 F   0  0  0  0  0  0  0  0  0  0  0  0
   10.2652   -5.2095    0.0000 F   0  0  0  0  0  0  0  0  0  0  0  0
    8.0127   -8.3761    0.0000 C   0  0  0  0  0  0  0  0  0  0  0  0
    7.4626   -8.9916    0.0000 C   0  0  0  0  0  0  0  0  0  0  0  0
    7.8781   -9.7049    0.0000 O   0  0  0  0  0  0  0  0  0  0  0  0
    8.6848   -9.5302    0.0000 N   0  0  0  0  0  0  0  0  0  0  0  0
    6.6414   -8.9084    0.0000 C   0  0  0  0  0  0  0  0  0  0  0  0
    6.3040   -8.1546    0.0000 C   0  0  0  0  0  0  0  0  0  0  0  0
    5.4835   -8.0712    0.0000 C   0  0  0  0  0  0  0  0  0  0  0  0
    5.0000   -8.7412    0.0000 C   0  0  0  0  0  0  0  0  0  0  0  0
    5.3428   -9.4969    0.0000 C   0  0  0  0  0  0  0  0  0  0  0  0
    6.1622   -9.5767    0.0000 C   0  0  0  0  0  0  0  0  0  0  0  0
 13 17  1  0  0  0  0
 17 18  1  0  0  0  0
 17 19  1  0  0  0  0
 17 20  1  0  0  0  0
  1  2  1  0  0  0  0
  2  3  1  0  0  0  0
  2  4  1  0  0  0  0
  2  5  1  0  0  0  0
  3  6  2  0  0  0  0
  6  7  1  0  0  0  0
  7  8  2  0  0  0  0
  8  9  1  0  0  0  0
  9 10  2  0  0  0  0
 10  3  1  0  0  0  0
  4 11  2  0  0  0  0
 11 12  1  0  0  0  0
 12 13  2  0  0  0  0
 13 14  1  0  0  0  0
 14 15  2  0  0  0  0
 15  4  1  0  0  0  0
  8 16  1  0  0  0  0
  1 21  1  0  0  0  0
 21 22  2  0  0  0  0
 22 23  1  0  0  0  0
 23 24  1  0  0  0  0
 24  1  2  0  0  0  0
 22 25  1  0  0  0  0
 25 26  2  0  0  0  0
 26 27  1  0  0  0  0
 27 28  2  0  0  0  0
 28 29  1  0  0  0  0
 29 30  2  0  0  0  0
 30 25  1  0  0  0  0
M  END
> <Molecule Name>
DNDI1335916

> <CDD Number>
CDD-1535275

> <IC50_uM>
> 1.0 (n=1)

$$$$

SketchEl molfile

 26 28  0  0  0  0  0  0  0  0999 V2000
    5.7160   -7.8893    0.0000 C   0  0  0  0  0  0  0  0  0  0  0  0
    5.7149   -8.7167    0.0000 C   0  0  0  0  0  0  0  0  0  0  0  0
    6.4297   -9.1296    0.0000 C   0  0  0  0  0  0  0  0  0  0  0  0
    7.1462   -8.7162    0.0000 C   0  0  0  0  0  0  0  0  0  0  0  0
    7.1434   -7.8856    0.0000 C   0  0  0  0  0  0  0  0  0  0  0  0
    6.4279   -7.4765    0.0000 C   0  0  0  0  0  0  0  0  0  0  0  0
    7.8564   -7.4704    0.0000 C   0  0  0  0  0  0  0  0  0  0  0  0
    8.5725   -7.8802    0.0000 C   0  0  0  0  0  0  0  0  0  0  0  0
    7.8533   -6.6453    0.0000 C   0  0  0  0  0  0  0  0  0  0  0  0
    7.8510   -8.2935    0.0000 O   0  0  0  0  0  0  0  0  0  0  0  0
    8.5722   -8.7030    0.0000 C   0  0  0  0  0  0  0  0  0  0  0  0
    9.2874   -9.1127    0.0000 C   0  0  0  0  0  0  0  0  0  0  0  0
   10.0014   -8.6974    0.0000 C   0  0  0  0  0  0  0  0  0  0  0  0
    9.9956   -7.8681    0.0000 C   0  0  0  0  0  0  0  0  0  0  0  0
    9.2798   -7.4621    0.0000 C   0  0  0  0  0  0  0  0  0  0  0  0
    8.5680   -6.2349    0.0000 C   0  0  0  0  0  0  0  0  0  0  0  0
    8.5652   -5.4106    0.0000 N   0  0  0  0  0  0  0  0  0  0  0  0
    7.8486   -5.0000    0.0000 C   0  0  0  0  0  0  0  0  0  0  0  0
    7.1333   -5.4196    0.0000 C   0  0  0  0  0  0  0  0  0  0  0  0
    7.1396   -6.2426    0.0000 C   0  0  0  0  0  0  0  0  0  0  0  0
    6.4286   -6.6613    0.0000 C   0  0  0  0  0  0  0  0  0  0  0  0
    5.0000   -9.1287    0.0000 Cl  0  0  0  0  0  0  0  0  0  0  0  0
   10.7180   -9.1063    0.0000 C   0  0  0  0  0  0  0  0  0  0  0  0
   10.7222   -9.9314    0.0000 F   0  0  0  0  0  0  0  0  0  0  0  0
   11.4305   -8.6902    0.0000 F   0  0  0  0  0  0  0  0  0  0  0  0
   10.1376   -9.6927    0.0000 F   0  0  0  0  0  0  0  0  0  0  0  0
 13 23  1  0  0  0  0
 23 24  1  0  0  0  0
 23 25  1  0  0  0  0
 23 26  1  0  0  0  0
  1  2  2  0  0  0  0
  2  3  1  0  0  0  0
  3  4  2  0  0  0  0
  4  5  1  0  0  0  0
  5  6  2  0  0  0  0
  6  1  1  0  0  0  0
  5  7  1  0  0  0  0
  7  8  1  0  0  0  0
  7  9  1  0  0  0  0
  7 10  1  0  0  0  0
  8 11  2  0  0  0  0
 11 12  1  0  0  0  0
 12 13  2  0  0  0  0
 13 14  1  0  0  0  0
 14 15  2  0  0  0  0
 15  8  1  0  0  0  0
  9 16  2  0  0  0  0
 16 17  1  0  0  0  0
 17 18  2  0  0  0  0
 18 19  1  0  0  0  0
 19 20  2  0  0  0  0
 20  9  1  0  0  0  0
 20 21  1  0  0  0  0
  2 22  1  0  0  0  0
M  END
> <Molecule Name>
DNDI1336026

> <CDD Number>
CDD-1535276

> <IC50_uM>
0.042 (n=1)

$$$$

SketchEl molfile

 19 21  0  0  0  0  0  0  0  0999 V2000
    5.7160   -7.5115    0.0000 C   0  0  0  0  0  0  0  0  0  0  0  0
    5.7148   -8.3388    0.0000 C   0  0  0  0  0  0  0  0  0  0  0  0
    6.4296   -8.7517    0.0000 C   0  0  0  0  0  0  0  0  0  0  0  0
    7.1461   -8.3383    0.0000 C   0  0  0  0  0  0  0  0  0  0  0  0
    7.1432   -7.5078    0.0000 C   0  0  0  0  0  0  0  0  0  0  0  0
    6.4278   -7.0987    0.0000 C   0  0  0  0  0  0  0  0  0  0  0  0
    7.8561   -7.0926    0.0000 C   0  0  0  0  0  0  0  0  0  0  0  0
    8.5721   -7.5024    0.0000 C   0  0  0  0  0  0  0  0  0  0  0  0
    7.8530   -6.2676    0.0000 C   0  0  0  0  0  0  0  0  0  0  0  0
    8.5180   -5.7837    0.0000 S   0  0  0  0  0  0  0  0  0  0  0  0
    8.2601   -5.0000    0.0000 C   0  0  0  0  0  0  0  0  0  0  0  0
    7.4350   -5.0031    0.0000 C   0  0  0  0  0  0  0  0  0  0  0  0
    7.1832   -5.7887    0.0000 C   0  0  0  0  0  0  0  0  0  0  0  0
    8.5719   -8.3251    0.0000 C   0  0  0  0  0  0  0  0  0  0  0  0
    9.2871   -8.7348    0.0000 C   0  0  0  0  0  0  0  0  0  0  0  0
   10.0010   -8.3196    0.0000 C   0  0  0  0  0  0  0  0  0  0  0  0
    9.9952   -7.4903    0.0000 N   0  0  0  0  0  0  0  0  0  0  0  0
    9.2794   -7.0843    0.0000 C   0  0  0  0  0  0  0  0  0  0  0  0
    5.0000   -8.7508    0.0000 Cl  0  0  0  0  0  0  0  0  0  0  0  0
  1  2  2  0  0  0  0
  2  3  1  0  0  0  0
  3  4  2  0  0  0  0
  4  5  1  0  0  0  0
  5  6  2  0  0  0  0
  6  1  1  0  0  0  0
  5  7  1  0  0  0  0
  7  8  1  0  0  0  0
  7  9  1  0  0  0  0
  9 10  1  0  0  0  0
 10 11  1  0  0  0  0
 11 12  2  0  0  0  0
 12 13  1  0  0  0  0
 13  9  2  0  0  0  0
  8 14  2  0  0  0  0
 14 15  1  0  0  0  0
 15 16  2  0  0  0  0
 16 17  1  0  0  0  0
 17 18  2  0  0  0  0
 18  8  1  0  0  0  0
  2 19  1  0  0  0  0
M  END
> <Molecule Name>
DNDI1336027

> <CDD Number>
CDD-1535277

> <IC50_uM>
0.017 (n=1)

$$$$

SketchEl molfile

 26 28  0  0  0  0  0  0  0  0999 V2000
    5.7160   -7.5117    0.0000 C   0  0  0  0  0  0  0  0  0  0  0  0
    5.7149   -8.3391    0.0000 C   0  0  0  0  0  0  0  0  0  0  0  0
    6.4297   -8.7520    0.0000 C   0  0  0  0  0  0  0  0  0  0  0  0
    7.1462   -8.3386    0.0000 C   0  0  0  0  0  0  0  0  0  0  0  0
    7.1434   -7.5080    0.0000 C   0  0  0  0  0  0  0  0  0  0  0  0
    6.4279   -7.0989    0.0000 C   0  0  0  0  0  0  0  0  0  0  0  0
    7.8563   -7.0928    0.0000 C   0  0  0  0  0  0  0  0  0  0  0  0
    8.5724   -7.5027    0.0000 C   0  0  0  0  0  0  0  0  0  0  0  0
    7.8532   -6.2678    0.0000 C   0  0  0  0  0  0  0  0  0  0  0  0
    7.8510   -7.9159    0.0000 O   0  0  0  0  0  0  0  0  0  0  0  0
    8.5183   -5.7837    0.0000 C   0  0  0  0  0  0  0  0  0  0  0  0
    8.2604   -5.0000    0.0000 N   0  0  0  0  0  0  0  0  0  0  0  0
    7.4352   -5.0031    0.0000 O   0  0  0  0  0  0  0  0  0  0  0  0
    7.1834   -5.7888    0.0000 C   0  0  0  0  0  0  0  0  0  0  0  0
    8.5722   -8.3254    0.0000 C   0  0  0  0  0  0  0  0  0  0  0  0
    9.2874   -8.7351    0.0000 C   0  0  0  0  0  0  0  0  0  0  0  0
   10.0014   -8.3199    0.0000 C   0  0  0  0  0  0  0  0  0  0  0  0
    9.9956   -7.4905    0.0000 C   0  0  0  0  0  0  0  0  0  0  0  0
    9.2798   -7.0845    0.0000 C   0  0  0  0  0  0  0  0  0  0  0  0
    5.0000   -8.7511    0.0000 Cl  0  0  0  0  0  0  0  0  0  0  0  0
    9.3035   -6.0369    0.0000 C   0  0  0  0  0  0  0  0  0  0  0  0
    6.4001   -6.0482    0.0000 C   0  0  0  0  0  0  0  0  0  0  0  0
   10.7180   -8.7287    0.0000 C   0  0  0  0  0  0  0  0  0  0  0  0
   10.7222   -9.5538    0.0000 F   0  0  0  0  0  0  0  0  0  0  0  0
   11.4304   -8.3126    0.0000 F   0  0  0  0  0  0  0  0  0  0  0  0
   10.1376   -9.3151    0.0000 F   0  0  0  0  0  0  0  0  0  0  0  0
 17 23  1  0  0  0  0
 23 24  1  0  0  0  0
 23 25  1  0  0  0  0
 23 26  1  0  0  0  0
  1  2  2  0  0  0  0
  2  3  1  0  0  0  0
  3  4  2  0  0  0  0
  4  5  1  0  0  0  0
  5  6  2  0  0  0  0
  6  1  1  0  0  0  0
  5  7  1  0  0  0  0
  7  8  1  0  0  0  0
  7  9  1  0  0  0  0
  7 10  1  0  0  0  0
  9 11  1  0  0  0  0
 11 12  2  0  0  0  0
 12 13  1  0  0  0  0
 13 14  1  0  0  0  0
 14  9  2  0  0  0  0
  8 15  2  0  0  0  0
 15 16  1  0  0  0  0
 16 17  2  0  0  0  0
 17 18  1  0  0  0  0
 18 19  2  0  0  0  0
 19  8  1  0  0  0  0
  2 20  1  0  0  0  0
 11 21  1  0  0  0  0
 14 22  1  0  0  0  0
M  END
> <Molecule Name>
DNDI1336028

> <CDD Number>
CDD-1535278

> <IC50_uM>
> 1.0 (n=1)

$$$$

SketchEl molfile

 19 20  0  0  0  0  0  0  0  0999 V2000
    5.0012   -6.6663    0.0000 C   0  0  0  0  0  0  0  0  0  0  0  0
    5.0000   -7.4934    0.0000 C   0  0  0  0  0  0  0  0  0  0  0  0
    5.7146   -7.9061    0.0000 N   0  0  0  0  0  0  0  0  0  0  0  0
    6.4308   -7.4929    0.0000 C   0  0  0  0  0  0  0  0  0  0  0  0
    6.4279   -6.6627    0.0000 C   0  0  0  0  0  0  0  0  0  0  0  0
    5.7128   -6.2537    0.0000 C   0  0  0  0  0  0  0  0  0  0  0  0
    7.1406   -6.2476    0.0000 N   0  0  0  0  0  0  0  0  0  0  0  0
    7.8563   -6.6573    0.0000 C   0  0  0  0  0  0  0  0  0  0  0  0
    8.5690   -6.2422    0.0000 C   0  0  0  0  0  0  0  0  0  0  0  0
    7.8594   -7.4820    0.0000 C   0  0  0  0  0  0  0  0  0  0  0  0
    8.5639   -5.4168    0.0000 C   0  0  0  0  0  0  0  0  0  0  0  0
    9.2755   -5.0000    0.0000 C   0  0  0  0  0  0  0  0  0  0  0  0
    7.8471   -5.0089    0.0000 C   0  0  0  0  0  0  0  0  0  0  0  0
    7.1477   -7.8939    0.0000 C   0  0  0  0  0  0  0  0  0  0  0  0
    7.1504   -8.7178    0.0000 C   0  0  0  0  0  0  0  0  0  0  0  0
    7.8667   -9.1283    0.0000 C   0  0  0  0  0  0  0  0  0  0  0  0
    8.5817   -8.7088    0.0000 C   0  0  0  0  0  0  0  0  0  0  0  0
    8.5755   -7.8862    0.0000 C   0  0  0  0  0  0  0  0  0  0  0  0
    7.8709   -9.9530    0.0000 Cl  0  0  0  0  0  0  0  0  0  0  0  0
  1  2  2  0  0  0  0
  2  3  1  0  0  0  0
  3  4  2  0  0  0  0
  4  5  1  0  0  0  0
  5  6  2  0  0  0  0
  6  1  1  0  0  0  0
  5  7  1  0  0  0  0
  7  8  1  0  0  0  0
  8  9  1  0  0  0  0
  8 10  1  0  0  0  0
  9 11  1  0  0  0  0
 11 12  1  0  0  0  0
 11 13  1  0  0  0  0
 10 14  2  0  0  0  0
 14 15  1  0  0  0  0
 15 16  2  0  0  0  0
 16 17  1  0  0  0  0
 17 18  2  0  0  0  0
 18 10  1  0  0  0  0
 16 19  1  0  0  0  0
M  END
> <Molecule Name>
DNDI1336029

> <CDD Number>
CDD-1535279

> <IC50_uM>
0.64 (n=1)

$$$$

SketchEl molfile

 26 28  0  0  0  0  0  0  0  0999 V2000
    5.0012  -10.3658    0.0000 C   0  0  0  0  0  0  0  0  0  0  0  0
    5.0000  -11.1931    0.0000 C   0  0  0  0  0  0  0  0  0  0  0  0
    5.7147  -11.6059    0.0000 N   0  0  0  0  0  0  0  0  0  0  0  0
    6.4311  -11.1926    0.0000 C   0  0  0  0  0  0  0  0  0  0  0  0
    6.4282  -10.3622    0.0000 C   0  0  0  0  0  0  0  0  0  0  0  0
    5.7129   -9.9531    0.0000 C   0  0  0  0  0  0  0  0  0  0  0  0
    7.1411   -9.9470    0.0000 C   0  0  0  0  0  0  0  0  0  0  0  0
    7.8570  -10.3568    0.0000 C   0  0  0  0  0  0  0  0  0  0  0  0
    7.1380   -9.1221    0.0000 N   0  0  0  0  0  0  0  0  0  0  0  0
    7.8568  -11.1793    0.0000 C   0  0  0  0  0  0  0  0  0  0  0  0
    8.5719  -11.5890    0.0000 C   0  0  0  0  0  0  0  0  0  0  0  0
    9.2857  -11.1738    0.0000 C   0  0  0  0  0  0  0  0  0  0  0  0
    9.2799  -10.3447    0.0000 C   0  0  0  0  0  0  0  0  0  0  0  0
    8.5642   -9.9387    0.0000 C   0  0  0  0  0  0  0  0  0  0  0  0
    7.8559   -8.7092    0.0000 C   0  0  0  0  0  0  0  0  0  0  0  0
    7.8548   -7.8879    0.0000 C   0  0  0  0  0  0  0  0  0  0  0  0
    7.1407   -7.4742    0.0000 N   0  0  0  0  0  0  0  0  0  0  0  0
    6.4260   -7.8881    0.0000 C   0  0  0  0  0  0  0  0  0  0  0  0
    6.4255   -8.7157    0.0000 C   0  0  0  0  0  0  0  0  0  0  0  0
   10.0022  -11.5826    0.0000 Cl  0  0  0  0  0  0  0  0  0  0  0  0
    7.1407   -6.6493    0.0000 C   0  0  0  0  0  0  0  0  0  0  0  0
    7.8551   -6.2369    0.0000 C   0  0  0  0  0  0  0  0  0  0  0  0
    7.8551   -5.4120    0.0000 C   0  0  0  0  0  0  0  0  0  0  0  0
    8.5695   -5.0000    0.0000 C   0  0  0  0  0  0  0  0  0  0  0  0
    7.1407   -5.0000    0.0000 C   0  0  0  0  0  0  0  0  0  0  0  0
    6.4263   -6.2369    0.0000 O   0  0  0  0  0  0  0  0  0  0  0  0
  1  2  2  0  0  0  0
  2  3  1  0  0  0  0
  3  4  2  0  0  0  0
  4  5  1  0  0  0  0
  5  6  2  0  0  0  0
  6  1  1  0  0  0  0
  5  7  1  0  0  0  0
  7  8  1  0  0  0  0
  7  9  1  0  0  0  0
  8 10  2  0  0  0  0
 10 11  1  0  0  0  0
 11 12  2  0  0  0  0
 12 13  1  0  0  0  0
 13 14  2  0  0  0  0
 14  8  1  0  0  0  0
  9 15  1  0  0  0  0
  9 19  1  0  0  0  0
 15 16  1  0  0  0  0
 16 17  1  0  0  0  0
 17 18  1  0  0  0  0
 18 19  1  0  0  0  0
 12 20  1  0  0  0  0
 17 21  1  0  0  0  0
 21 22  1  0  0  0  0
 22 23  1  0  0  0  0
 23 24  1  0  0  0  0
 23 25  1  0  0  0  0
 21 26  2  0  0  0  0
M  END
> <Molecule Name>
DNDI1336030

> <CDD Number>
CDD-1535280

> <IC50_uM>
0.055 (n=1)

$$$$

SketchEl molfile

 24 26  0  0  0  0  0  0  0  0999 V2000
    5.7160   -7.8893    0.0000 C   0  0  0  0  0  0  0  0  0  0  0  0
    5.7149   -8.7168    0.0000 C   0  0  0  0  0  0  0  0  0  0  0  0
    6.4297   -9.1297    0.0000 C   0  0  0  0  0  0  0  0  0  0  0  0
    7.1463   -8.7163    0.0000 C   0  0  0  0  0  0  0  0  0  0  0  0
    7.1434   -7.8857    0.0000 C   0  0  0  0  0  0  0  0  0  0  0  0
    6.4279   -7.4765    0.0000 C   0  0  0  0  0  0  0  0  0  0  0  0
    7.8564   -7.4705    0.0000 C   0  0  0  0  0  0  0  0  0  0  0  0
    8.5725   -7.8803    0.0000 C   0  0  0  0  0  0  0  0  0  0  0  0
    7.8533   -6.6454    0.0000 C   0  0  0  0  0  0  0  0  0  0  0  0
    7.8510   -8.2936    0.0000 O   0  0  0  0  0  0  0  0  0  0  0  0
    8.5722   -8.7030    0.0000 C   0  0  0  0  0  0  0  0  0  0  0  0
    9.2875   -9.1128    0.0000 C   0  0  0  0  0  0  0  0  0  0  0  0
   10.0014   -8.6975    0.0000 C   0  0  0  0  0  0  0  0  0  0  0  0
    9.9957   -7.8682    0.0000 C   0  0  0  0  0  0  0  0  0  0  0  0
    9.2798   -7.4622    0.0000 C   0  0  0  0  0  0  0  0  0  0  0  0
    8.5680   -6.2350    0.0000 C   0  0  0  0  0  0  0  0  0  0  0  0
    8.5653   -5.4107    0.0000 N   0  0  0  0  0  0  0  0  0  0  0  0
    7.8486   -5.0000    0.0000 C   0  0  0  0  0  0  0  0  0  0  0  0
    7.1333   -5.4197    0.0000 C   0  0  0  0  0  0  0  0  0  0  0  0
    7.1396   -6.2426    0.0000 C   0  0  0  0  0  0  0  0  0  0  0  0
    5.0000   -9.1288    0.0000 Cl  0  0  0  0  0  0  0  0  0  0  0  0
   10.7072   -7.4505    0.0000 C   0  0  0  0  0  0  0  0  0  0  0  0
   11.4247   -7.8578    0.0000 N   0  0  0  0  0  0  0  0  0  0  0  0
   10.7012   -6.6254    0.0000 O   0  0  0  0  0  0  0  0  0  0  0  0
  1  2  2  0  0  0  0
  2  3  1  0  0  0  0
  3  4  2  0  0  0  0
  4  5  1  0  0  0  0
  5  6  2  0  0  0  0
  6  1  1  0  0  0  0
  5  7  1  0  0  0  0
  7  8  1  0  0  0  0
  7  9  1  0  0  0  0
  7 10  1  0  0  0  0
  8 11  2  0  0  0  0
 11 12  1  0  0  0  0
 12 13  2  0  0  0  0
 13 14  1  0  0  0  0
 14 15  2  0  0  0  0
 15  8  1  0  0  0  0
  9 16  2  0  0  0  0
 16 17  1  0  0  0  0
 17 18  2  0  0  0  0
 18 19  1  0  0  0  0
 19 20  2  0  0  0  0
 20  9  1  0  0  0  0
  2 21  1  0  0  0  0
 14 22  1  0  0  0  0
 22 23  1  0  0  0  0
 22 24  2  0  0  0  0
M  END
> <Molecule Name>
DNDI1336031

> <CDD Number>
CDD-1535281

> <IC50_uM>
0.0483735464897913 ร/รท 1.96530730475157 (n=2)

$$$$

SketchEl molfile

 24 26  0  0  0  0  0  0  0  0999 V2000
    8.1981   -7.4687    0.0000 C   0  0  0  0  0  0  0  0  0  0  0  0
    8.9137   -7.8782    0.0000 C   0  0  0  0  0  0  0  0  0  0  0  0
    8.1950   -6.6442    0.0000 C   0  0  0  0  0  0  0  0  0  0  0  0
    8.1928   -8.2912    0.0000 O   0  0  0  0  0  0  0  0  0  0  0  0
    8.9135   -8.7004    0.0000 C   0  0  0  0  0  0  0  0  0  0  0  0
    9.6282   -9.1099    0.0000 C   0  0  0  0  0  0  0  0  0  0  0  0
   10.3417   -8.6949    0.0000 C   0  0  0  0  0  0  0  0  0  0  0  0
   10.3359   -7.8661    0.0000 C   0  0  0  0  0  0  0  0  0  0  0  0
    9.6206   -7.4604    0.0000 C   0  0  0  0  0  0  0  0  0  0  0  0
    8.9093   -6.2341    0.0000 C   0  0  0  0  0  0  0  0  0  0  0  0
    8.9065   -5.4103    0.0000 N   0  0  0  0  0  0  0  0  0  0  0  0
    8.1904   -5.0000    0.0000 C   0  0  0  0  0  0  0  0  0  0  0  0
    7.4756   -5.4193    0.0000 C   0  0  0  0  0  0  0  0  0  0  0  0
    7.4818   -6.2417    0.0000 C   0  0  0  0  0  0  0  0  0  0  0  0
    7.3974   -7.6791    0.0000 C   0  0  0  0  0  0  0  0  0  0  0  0
    6.8160   -7.0881    0.0000 C   0  0  0  0  0  0  0  0  0  0  0  0
    6.0160   -7.2979    0.0000 C   0  0  0  0  0  0  0  0  0  0  0  0
    5.7971   -8.0973    0.0000 C   0  0  0  0  0  0  0  0  0  0  0  0
    6.3846   -8.6868    0.0000 C   0  0  0  0  0  0  0  0  0  0  0  0
    7.1825   -8.4738    0.0000 C   0  0  0  0  0  0  0  0  0  0  0  0
    5.0000   -8.3079    0.0000 Cl  0  0  0  0  0  0  0  0  0  0  0  0
    8.2001   -9.1137    0.0000 C   0  0  0  0  0  0  0  0  0  0  0  0
    7.4854   -8.7025    0.0000 O   0  0  0  0  0  0  0  0  0  0  0  0
    8.2013   -9.9382    0.0000 N   0  0  0  0  0  0  0  0  0  0  0  0
  1  2  1  0  0  0  0
  1  3  1  0  0  0  0
  1  4  1  0  0  0  0
  2  5  2  0  0  0  0
  5  6  1  0  0  0  0
  6  7  2  0  0  0  0
  7  8  1  0  0  0  0
  8  9  2  0  0  0  0
  9  2  1  0  0  0  0
  3 10  2  0  0  0  0
 10 11  1  0  0  0  0
 11 12  2  0  0  0  0
 12 13  1  0  0  0  0
 13 14  2  0  0  0  0
 14  3  1  0  0  0  0
  1 15  1  0  0  0  0
 15 16  2  0  0  0  0
 16 17  1  0  0  0  0
 17 18  2  0  0  0  0
 18 19  1  0  0  0  0
 19 20  2  0  0  0  0
 20 15  1  0  0  0  0
 18 21  1  0  0  0  0
  5 22  1  0  0  0  0
 22 23  2  0  0  0  0
 22 24  1  0  0  0  0
M  END
> <Molecule Name>
DNDI1336032

> <CDD Number>
CDD-1535282

> <IC50_uM>
0.033 (n=1)

$$$$

SketchEl molfile

 27 29  0  0  0  0  0  0  0  0999 V2000
    5.7160   -7.8893    0.0000 C   0  0  0  0  0  0  0  0  0  0  0  0
    5.7149   -8.7168    0.0000 C   0  0  0  0  0  0  0  0  0  0  0  0
    6.4297   -9.1297    0.0000 C   0  0  0  0  0  0  0  0  0  0  0  0
    7.1462   -8.7163    0.0000 C   0  0  0  0  0  0  0  0  0  0  0  0
    7.1434   -7.8857    0.0000 C   0  0  0  0  0  0  0  0  0  0  0  0
    6.4279   -7.4765    0.0000 C   0  0  0  0  0  0  0  0  0  0  0  0
    7.8564   -7.4705    0.0000 C   0  0  0  0  0  0  0  0  0  0  0  0
    8.5724   -7.8803    0.0000 C   0  0  0  0  0  0  0  0  0  0  0  0
    7.8532   -6.6454    0.0000 C   0  0  0  0  0  0  0  0  0  0  0  0
    7.8510   -8.2936    0.0000 O   0  0  0  0  0  0  0  0  0  0  0  0
    8.5680   -6.2350    0.0000 C   0  0  0  0  0  0  0  0  0  0  0  0
    8.5652   -5.4107    0.0000 N   0  0  0  0  0  0  0  0  0  0  0  0
    7.8486   -5.0000    0.0000 C   0  0  0  0  0  0  0  0  0  0  0  0
    7.1333   -5.4197    0.0000 C   0  0  0  0  0  0  0  0  0  0  0  0
    7.1396   -6.2426    0.0000 C   0  0  0  0  0  0  0  0  0  0  0  0
    8.5722   -8.7030    0.0000 C   0  0  0  0  0  0  0  0  0  0  0  0
    9.2874   -9.1128    0.0000 C   0  0  0  0  0  0  0  0  0  0  0  0
   10.0014   -8.6975    0.0000 C   0  0  0  0  0  0  0  0  0  0  0  0
    9.9956   -7.8682    0.0000 C   0  0  0  0  0  0  0  0  0  0  0  0
    9.2798   -7.4621    0.0000 C   0  0  0  0  0  0  0  0  0  0  0  0
   10.7180   -9.1064    0.0000 C   0  0  0  0  0  0  0  0  0  0  0  0
   10.7222   -9.9314    0.0000 C   0  0  0  0  0  0  0  0  0  0  0  0
   11.4304   -8.6902    0.0000 C   0  0  0  0  0  0  0  0  0  0  0  0
    5.0000   -9.1287    0.0000 C   0  0  0  0  0  0  0  0  0  0  0  0
    4.2858   -8.7156    0.0000 F   0  0  0  0  0  0  0  0  0  0  0  0
    4.9993   -9.9538    0.0000 F   0  0  0  0  0  0  0  0  0  0  0  0
    4.7871   -8.3316    0.0000 F   0  0  0  0  0  0  0  0  0  0  0  0
  2 24  1  0  0  0  0
 24 25  1  0  0  0  0
 24 26  1  0  0  0  0
 24 27  1  0  0  0  0
  1  2  2  0  0  0  0
  2  3  1  0  0  0  0
  3  4  2  0  0  0  0
  4  5  1  0  0  0  0
  5  6  2  0  0  0  0
  6  1  1  0  0  0  0
  5  7  1  0  0  0  0
  7  8  1  0  0  0  0
  7  9  1  0  0  0  0
  7 10  1  0  0  0  0
  9 11  2  0  0  0  0
 11 12  1  0  0  0  0
 12 13  2  0  0  0  0
 13 14  1  0  0  0  0
 14 15  2  0  0  0  0
 15  9  1  0  0  0  0
  8 16  2  0  0  0  0
 16 17  1  0  0  0  0
 17 18  2  0  0  0  0
 18 19  1  0  0  0  0
 19 20  2  0  0  0  0
 20  8  1  0  0  0  0
 18 21  1  0  0  0  0
 21 22  1  0  0  0  0
 21 23  1  0  0  0  0
M  END
> <Molecule Name>
DNDI1336033

> <CDD Number>
CDD-1535283

> <IC50_uM>
0.002 (n=1)

$$$$

SketchEl molfile

 27 29  0  0  0  0  0  0  0  0999 V2000
    5.7160   -7.8893    0.0000 C   0  0  0  0  0  0  0  0  0  0  0  0
    5.7149   -8.7168    0.0000 C   0  0  0  0  0  0  0  0  0  0  0  0
    6.4297   -9.1297    0.0000 C   0  0  0  0  0  0  0  0  0  0  0  0
    7.1462   -8.7163    0.0000 C   0  0  0  0  0  0  0  0  0  0  0  0
    7.1434   -7.8857    0.0000 C   0  0  0  0  0  0  0  0  0  0  0  0
    6.4279   -7.4765    0.0000 C   0  0  0  0  0  0  0  0  0  0  0  0
    7.8564   -7.4705    0.0000 C   0  0  0  0  0  0  0  0  0  0  0  0
    8.5724   -7.8803    0.0000 C   0  0  0  0  0  0  0  0  0  0  0  0
    7.8532   -6.6454    0.0000 C   0  0  0  0  0  0  0  0  0  0  0  0
    7.8510   -8.2936    0.0000 O   0  0  0  0  0  0  0  0  0  0  0  0
    8.5680   -6.2350    0.0000 C   0  0  0  0  0  0  0  0  0  0  0  0
    8.5652   -5.4107    0.0000 N   0  0  0  0  0  0  0  0  0  0  0  0
    7.8486   -5.0000    0.0000 C   0  0  0  0  0  0  0  0  0  0  0  0
    7.1333   -5.4197    0.0000 C   0  0  0  0  0  0  0  0  0  0  0  0
    7.1396   -6.2426    0.0000 C   0  0  0  0  0  0  0  0  0  0  0  0
    8.5722   -8.7030    0.0000 C   0  0  0  0  0  0  0  0  0  0  0  0
    9.2874   -9.1128    0.0000 C   0  0  0  0  0  0  0  0  0  0  0  0
   10.0014   -8.6975    0.0000 C   0  0  0  0  0  0  0  0  0  0  0  0
    9.9956   -7.8682    0.0000 C   0  0  0  0  0  0  0  0  0  0  0  0
    9.2798   -7.4621    0.0000 C   0  0  0  0  0  0  0  0  0  0  0  0
   10.7180   -9.1064    0.0000 C   0  0  0  0  0  0  0  0  0  0  0  0
   10.7222   -9.9314    0.0000 N   0  0  0  0  0  0  0  0  0  0  0  0
   11.4304   -8.6902    0.0000 O   0  0  0  0  0  0  0  0  0  0  0  0
    5.0000   -9.1287    0.0000 C   0  0  0  0  0  0  0  0  0  0  0  0
    4.2858   -8.7156    0.0000 F   0  0  0  0  0  0  0  0  0  0  0  0
    4.9993   -9.9538    0.0000 F   0  0  0  0  0  0  0  0  0  0  0  0
    4.7871   -8.3316    0.0000 F   0  0  0  0  0  0  0  0  0  0  0  0
  2 24  1  0  0  0  0
 24 25  1  0  0  0  0
 24 26  1  0  0  0  0
 24 27  1  0  0  0  0
  1  2  2  0  0  0  0
  2  3  1  0  0  0  0
  3  4  2  0  0  0  0
  4  5  1  0  0  0  0
  5  6  2  0  0  0  0
  6  1  1  0  0  0  0
  5  7  1  0  0  0  0
  7  8  1  0  0  0  0
  7  9  1  0  0  0  0
  7 10  1  0  0  0  0
  9 11  2  0  0  0  0
 11 12  1  0  0  0  0
 12 13  2  0  0  0  0
 13 14  1  0  0  0  0
 14 15  2  0  0  0  0
 15  9  1  0  0  0  0
  8 16  2  0  0  0  0
 16 17  1  0  0  0  0
 17 18  2  0  0  0  0
 18 19  1  0  0  0  0
 19 20  2  0  0  0  0
 20  8  1  0  0  0  0
 18 21  1  0  0  0  0
 21 22  1  0  0  0  0
 21 23  2  0  0  0  0
M  END
> <Molecule Name>
DNDI1336034

> <CDD Number>
CDD-1535284

> <IC50_uM>
0.12 (n=1)

$$$$

SketchEl molfile

 22 23  0  0  0  0  0  0  0  0999 V2000
    5.7158   -6.6670    0.0000 C   0  0  0  0  0  0  0  0  0  0  0  0
    5.7146   -7.4942    0.0000 C   0  0  0  0  0  0  0  0  0  0  0  0
    6.4292   -7.9069    0.0000 N   0  0  0  0  0  0  0  0  0  0  0  0
    7.1455   -7.4937    0.0000 C   0  0  0  0  0  0  0  0  0  0  0  0
    7.1426   -6.6634    0.0000 C   0  0  0  0  0  0  0  0  0  0  0  0
    6.4274   -6.2544    0.0000 C   0  0  0  0  0  0  0  0  0  0  0  0
    7.8553   -6.2483    0.0000 C   0  0  0  0  0  0  0  0  0  0  0  0
    8.5712   -6.6580    0.0000 C   0  0  0  0  0  0  0  0  0  0  0  0
    9.2839   -6.2429    0.0000 C   0  0  0  0  0  0  0  0  0  0  0  0
    9.9981   -6.6561    0.0000 C   0  0  0  0  0  0  0  0  0  0  0  0
   10.7104   -6.2417    0.0000 C   0  0  0  0  0  0  0  0  0  0  0  0
   10.7077   -5.4160    0.0000 C   0  0  0  0  0  0  0  0  0  0  0  0
    9.9869   -5.0065    0.0000 C   0  0  0  0  0  0  0  0  0  0  0  0
    9.2776   -5.4232    0.0000 C   0  0  0  0  0  0  0  0  0  0  0  0
    8.5743   -7.4828    0.0000 O   0  0  0  0  0  0  0  0  0  0  0  0
    7.8616   -7.8979    0.0000 C   0  0  0  0  0  0  0  0  0  0  0  0
    7.8647   -8.7226    0.0000 C   0  0  0  0  0  0  0  0  0  0  0  0
    7.1519   -9.1377    0.0000 C   0  0  0  0  0  0  0  0  0  0  0  0
    7.1551   -9.9625    0.0000 C   0  0  0  0  0  0  0  0  0  0  0  0
    5.0000   -7.9060    0.0000 Cl  0  0  0  0  0  0  0  0  0  0  0  0
    9.9992   -7.4808    0.0000 Cl  0  0  0  0  0  0  0  0  0  0  0  0
   11.4199   -5.0000    0.0000 Cl  0  0  0  0  0  0  0  0  0  0  0  0
  1  2  2  0  0  0  0
  2  3  1  0  0  0  0
  3  4  2  0  0  0  0
  4  5  1  0  0  0  0
  5  6  2  0  0  0  0
  6  1  1  0  0  0  0
  5  7  1  0  0  0  0
  7  8  1  0  0  0  0
  8  9  1  0  0  0  0
  9 10  2  0  0  0  0
 10 11  1  0  0  0  0
 11 12  2  0  0  0  0
 12 13  1  0  0  0  0
 13 14  2  0  0  0  0
 14  9  1  0  0  0  0
  8 15  1  0  0  0  0
 15 16  1  0  0  0  0
 16 17  1  0  0  0  0
 17 18  1  0  0  0  0
 18 19  1  0  0  0  0
  2 20  1  0  0  0  0
 10 21  1  0  0  0  0
 12 22  1  0  0  0  0
M  END
> <Molecule Name>
DNDI1336035

> <CDD Number>
CDD-1535285

> <IC50_uM>
> 10.0 (n=1)

$$$$

SketchEl molfile

 26 28  0  0  0  0  0  0  0  0999 V2000
    7.1451   -7.8893    0.0000 C   0  0  0  0  0  0  0  0  0  0  0  0
    7.1439   -8.7168    0.0000 C   0  0  0  0  0  0  0  0  0  0  0  0
    7.8588   -9.1297    0.0000 C   0  0  0  0  0  0  0  0  0  0  0  0
    8.5753   -8.7163    0.0000 C   0  0  0  0  0  0  0  0  0  0  0  0
    8.5725   -7.8857    0.0000 C   0  0  0  0  0  0  0  0  0  0  0  0
    7.8570   -7.4765    0.0000 C   0  0  0  0  0  0  0  0  0  0  0  0
    9.2854   -7.4705    0.0000 C   0  0  0  0  0  0  0  0  0  0  0  0
   10.0015   -7.8803    0.0000 C   0  0  0  0  0  0  0  0  0  0  0  0
    9.2823   -6.6454    0.0000 C   0  0  0  0  0  0  0  0  0  0  0  0
    9.2800   -8.2936    0.0000 O   0  0  0  0  0  0  0  0  0  0  0  0
   10.0013   -8.7030    0.0000 C   0  0  0  0  0  0  0  0  0  0  0  0
   10.7165   -9.1128    0.0000 C   0  0  0  0  0  0  0  0  0  0  0  0
   11.4305   -8.6975    0.0000 C   0  0  0  0  0  0  0  0  0  0  0  0
   11.4247   -7.8682    0.0000 C   0  0  0  0  0  0  0  0  0  0  0  0
   10.7089   -7.4622    0.0000 C   0  0  0  0  0  0  0  0  0  0  0  0
    9.9971   -6.2350    0.0000 C   0  0  0  0  0  0  0  0  0  0  0  0
    9.9943   -5.4107    0.0000 N   0  0  0  0  0  0  0  0  0  0  0  0
    9.2777   -5.0000    0.0000 C   0  0  0  0  0  0  0  0  0  0  0  0
    8.5624   -5.4197    0.0000 C   0  0  0  0  0  0  0  0  0  0  0  0
    8.5686   -6.2426    0.0000 C   0  0  0  0  0  0  0  0  0  0  0  0
    6.4291   -9.1288    0.0000 O   0  0  0  0  0  0  0  0  0  0  0  0
    5.7149   -8.7157    0.0000 C   0  0  0  0  0  0  0  0  0  0  0  0
    5.0000   -9.1276    0.0000 C   0  0  0  0  0  0  0  0  0  0  0  0
    5.7155   -7.8906    0.0000 C   0  0  0  0  0  0  0  0  0  0  0  0
   10.7015   -6.6371    0.0000 F   0  0  0  0  0  0  0  0  0  0  0  0
   12.1471   -9.1064    0.0000 Cl  0  0  0  0  0  0  0  0  0  0  0  0
  1  2  2  0  0  0  0
  2  3  1  0  0  0  0
  3  4  2  0  0  0  0
  4  5  1  0  0  0  0
  5  6  2  0  0  0  0
  6  1  1  0  0  0  0
  5  7  1  0  0  0  0
  7  8  1  0  0  0  0
  7  9  1  0  0  0  0
  7 10  1  0  0  0  0
  8 11  2  0  0  0  0
 11 12  1  0  0  0  0
 12 13  2  0  0  0  0
 13 14  1  0  0  0  0
 14 15  2  0  0  0  0
 15  8  1  0  0  0  0
  9 16  2  0  0  0  0
 16 17  1  0  0  0  0
 17 18  2  0  0  0  0
 18 19  1  0  0  0  0
 19 20  2  0  0  0  0
 20  9  1  0  0  0  0
  2 21  1  0  0  0  0
 21 22  1  0  0  0  0
 22 23  1  0  0  0  0
 22 24  1  0  0  0  0
 15 25  1  0  0  0  0
 13 26  1  0  0  0  0
M  END
> <Molecule Name>
DNDI1336037

> <CDD Number>
CDD-1535286

> <IC50_uM>
0.0013 (n=1)

$$$$

SketchEl molfile

 16 17  0  0  0  0  0  0  0  0999 V2000
    5.7157   -6.6585    0.0000 C   0  0  0  0  0  0  0  0  0  0  0  0
    5.7146   -7.4856    0.0000 C   0  0  0  0  0  0  0  0  0  0  0  0
    6.4292   -7.8984    0.0000 C   0  0  0  0  0  0  0  0  0  0  0  0
    7.1454   -7.4852    0.0000 C   0  0  0  0  0  0  0  0  0  0  0  0
    7.1426   -6.6549    0.0000 C   0  0  0  0  0  0  0  0  0  0  0  0
    6.4274   -6.2459    0.0000 C   0  0  0  0  0  0  0  0  0  0  0  0
    7.8553   -6.2398    0.0000 C   0  0  0  0  0  0  0  0  0  0  0  0
    5.0000   -7.8975    0.0000 Cl  0  0  0  0  0  0  0  0  0  0  0  0
    8.5711   -6.6495    0.0000 C   0  0  0  0  0  0  0  0  0  0  0  0
    8.5708   -7.4719    0.0000 C   0  0  0  0  0  0  0  0  0  0  0  0
    9.2858   -7.8815    0.0000 C   0  0  0  0  0  0  0  0  0  0  0  0
    9.9995   -7.4664    0.0000 C   0  0  0  0  0  0  0  0  0  0  0  0
    9.9937   -6.6374    0.0000 C   0  0  0  0  0  0  0  0  0  0  0  0
    9.2782   -6.2315    0.0000 N   0  0  0  0  0  0  0  0  0  0  0  0
    7.8522   -5.4151    0.0000 C   0  0  0  0  0  0  0  0  0  0  0  0
    8.5649   -5.0000    0.0000 N   0  0  0  0  0  0  0  0  0  0  0  0
  1  2  2  0  0  0  0
  2  3  1  0  0  0  0
  3  4  2  0  0  0  0
  4  5  1  0  0  0  0
  5  6  2  0  0  0  0
  6  1  1  0  0  0  0
  5  7  1  0  0  0  0
  2  8  1  0  0  0  0
  7  9  1  0  0  0  0
  9 10  2  0  0  0  0
 10 11  1  0  0  0  0
 11 12  2  0  0  0  0
 12 13  1  0  0  0  0
 13 14  2  0  0  0  0
 14  9  1  0  0  0  0
  7 15  1  0  0  0  0
 15 16  3  0  0  0  0
M  END
> <Molecule Name>
DNDI1338486

> <CDD Number>
CDD-1535147

> <IC50_uM>
> 1.0 (n=1)

$$$$

SketchEl molfile

 28 30  0  0  0  0  0  0  0  0999 V2000
    7.1367   -7.8779    0.0000 C   0  0  0  0  0  0  0  0  0  0  0  0
    7.1355   -8.7021    0.0000 C   0  0  0  0  0  0  0  0  0  0  0  0
    7.8476   -9.1134    0.0000 C   0  0  0  0  0  0  0  0  0  0  0  0
    8.5613   -8.7017    0.0000 C   0  0  0  0  0  0  0  0  0  0  0  0
    8.5584   -7.8743    0.0000 C   0  0  0  0  0  0  0  0  0  0  0  0
    7.8458   -7.4668    0.0000 C   0  0  0  0  0  0  0  0  0  0  0  0
    9.2686   -7.4607    0.0000 C   0  0  0  0  0  0  0  0  0  0  0  0
    9.9819   -7.8690    0.0000 C   0  0  0  0  0  0  0  0  0  0  0  0
    9.2655   -6.6389    0.0000 C   0  0  0  0  0  0  0  0  0  0  0  0
   10.0602   -6.9980    0.0000 O   0  0  0  0  0  0  0  0  0  0  0  0
    9.9816   -8.6884    0.0000 C   0  0  0  0  0  0  0  0  0  0  0  0
   10.6941   -9.0966    0.0000 C   0  0  0  0  0  0  0  0  0  0  0  0
   11.4052   -8.6829    0.0000 C   0  0  0  0  0  0  0  0  0  0  0  0
   11.3995   -7.8569    0.0000 C   0  0  0  0  0  0  0  0  0  0  0  0
   10.6865   -7.4524    0.0000 C   0  0  0  0  0  0  0  0  0  0  0  0
    9.9775   -6.2301    0.0000 C   0  0  0  0  0  0  0  0  0  0  0  0
    9.9747   -5.4090    0.0000 N   0  0  0  0  0  0  0  0  0  0  0  0
    9.2609   -5.0000    0.0000 C   0  0  0  0  0  0  0  0  0  0  0  0
    8.5484   -5.4180    0.0000 C   0  0  0  0  0  0  0  0  0  0  0  0
    8.5546   -6.2377    0.0000 C   0  0  0  0  0  0  0  0  0  0  0  0
    6.4235   -9.1125    0.0000 O   0  0  0  0  0  0  0  0  0  0  0  0
    5.7121   -8.7010    0.0000 C   0  0  0  0  0  0  0  0  0  0  0  0
    5.0000   -9.1114    0.0000 C   0  0  0  0  0  0  0  0  0  0  0  0
    5.7127   -7.8792    0.0000 C   0  0  0  0  0  0  0  0  0  0  0  0
   12.1191   -9.0902    0.0000 O   0  0  0  0  0  0  0  0  0  0  0  0
   12.1232   -9.9121    0.0000 C   0  0  0  0  0  0  0  0  0  0  0  0
   12.8371  -10.3193    0.0000 C   0  0  0  0  0  0  0  0  0  0  0  0
   11.4136  -10.3266    0.0000 C   0  0  0  0  0  0  0  0  0  0  0  0
 13 14  1  0  0  0  0
  5  7  1  0  0  0  0
 14 15  2  0  0  0  0
 15  8  1  0  0  0  0
  3  4  2  0  0  0  0
  9 16  2  0  0  0  0
  7  8  1  0  0  0  0
 16 17  1  0  0  0  0
 17 18  2  0  0  0  0
  7  9  1  0  0  0  0
 18 19  1  0  0  0  0
  4  5  1  0  0  0  0
 19 20  2  0  0  0  0
 20  9  1  0  0  0  0
  7 10  1  0  0  0  0
  2 21  1  0  0  0  0
  2  3  1  0  0  0  0
 21 22  1  0  0  0  0
  8 11  2  0  0  0  0
 22 23  1  0  0  0  0
  5  6  2  0  0  0  0
 22 24  1  0  0  0  0
 11 12  1  0  0  0  0
 13 25  1  0  0  0  0
  6  1  1  0  0  0  0
 25 26  1  0  0  0  0
 12 13  2  0  0  0  0
 26 27  1  0  0  0  0
  1  2  2  0  0  0  0
 26 28  1  0  0  0  0
M  END
> <Molecule Name>
DNDI1338487

> <CDD Number>
CDD-1535287

> <IC50_uM>
0.016 (n=1)

$$$$

SketchEl molfile

 24 26  0  0  0  0  0  0  0  0999 V2000
    5.7128   -7.8762    0.0000 C   0  0  0  0  0  0  0  0  0  0  0  0
    5.7116   -8.7000    0.0000 C   0  0  0  0  0  0  0  0  0  0  0  0
    6.4233   -9.1110    0.0000 C   0  0  0  0  0  0  0  0  0  0  0  0
    7.1366   -8.6995    0.0000 C   0  0  0  0  0  0  0  0  0  0  0  0
    7.1337   -7.8726    0.0000 C   0  0  0  0  0  0  0  0  0  0  0  0
    6.4215   -7.4653    0.0000 C   0  0  0  0  0  0  0  0  0  0  0  0
    7.8435   -7.4593    0.0000 C   0  0  0  0  0  0  0  0  0  0  0  0
    8.5563   -7.8673    0.0000 C   0  0  0  0  0  0  0  0  0  0  0  0
    7.8404   -6.6379    0.0000 C   0  0  0  0  0  0  0  0  0  0  0  0
    8.6346   -6.9969    0.0000 O   0  0  0  0  0  0  0  0  0  0  0  0
    8.5561   -8.6863    0.0000 C   0  0  0  0  0  0  0  0  0  0  0  0
    9.2681   -9.0942    0.0000 C   0  0  0  0  0  0  0  0  0  0  0  0
    9.9788   -8.6808    0.0000 C   0  0  0  0  0  0  0  0  0  0  0  0
    9.9731   -7.8552    0.0000 C   0  0  0  0  0  0  0  0  0  0  0  0
    9.2605   -7.4510    0.0000 C   0  0  0  0  0  0  0  0  0  0  0  0
    8.5519   -6.2294    0.0000 C   0  0  0  0  0  0  0  0  0  0  0  0
    8.5492   -5.4088    0.0000 N   0  0  0  0  0  0  0  0  0  0  0  0
    7.8358   -5.0000    0.0000 C   0  0  0  0  0  0  0  0  0  0  0  0
    7.1237   -5.4178    0.0000 C   0  0  0  0  0  0  0  0  0  0  0  0
    7.1299   -6.2370    0.0000 C   0  0  0  0  0  0  0  0  0  0  0  0
    5.0000   -9.1101    0.0000 Cl  0  0  0  0  0  0  0  0  0  0  0  0
   10.6922   -9.0878    0.0000 Cl  0  0  0  0  0  0  0  0  0  0  0  0
    6.4190   -6.6440    0.0000 F   0  0  0  0  0  0  0  0  0  0  0  0
    7.8454   -9.0980    0.0000 F   0  0  0  0  0  0  0  0  0  0  0  0
  5  7  1  0  0  0  0
 14 15  2  0  0  0  0
 15  8  1  0  0  0  0
  3  4  2  0  0  0  0
  9 16  2  0  0  0  0
  7  8  1  0  0  0  0
 16 17  1  0  0  0  0
 17 18  2  0  0  0  0
  7  9  1  0  0  0  0
 18 19  1  0  0  0  0
  4  5  1  0  0  0  0
 19 20  2  0  0  0  0
 20  9  1  0  0  0  0
  7 10  1  0  0  0  0
  2 21  1  0  0  0  0
  2  3  1  0  0  0  0
  8 11  2  0  0  0  0
  5  6  2  0  0  0  0
 11 12  1  0  0  0  0
 13 22  1  0  0  0  0
  6  1  1  0  0  0  0
 12 13  2  0  0  0  0
  1  2  2  0  0  0  0
  6 23  1  0  0  0  0
 13 14  1  0  0  0  0
 11 24  1  0  0  0  0
M  END
> <Molecule Name>
DNDI1338488

> <CDD Number>
CDD-1535288

> <IC50_uM>
0.016 (n=1)

$$$$

SketchEl molfile

 22 24  0  0  0  0  0  0  0  0999 V2000
    5.7125   -7.8752    0.0000 C   0  0  0  0  0  0  0  0  0  0  0  0
    5.7114   -8.6986    0.0000 C   0  0  0  0  0  0  0  0  0  0  0  0
    6.4228   -9.1095    0.0000 C   0  0  0  0  0  0  0  0  0  0  0  0
    7.1358   -8.6981    0.0000 C   0  0  0  0  0  0  0  0  0  0  0  0
    7.1329   -7.8716    0.0000 C   0  0  0  0  0  0  0  0  0  0  0  0
    6.4210   -7.4644    0.0000 C   0  0  0  0  0  0  0  0  0  0  0  0
    7.8424   -7.4584    0.0000 C   0  0  0  0  0  0  0  0  0  0  0  0
    8.5550   -7.8662    0.0000 C   0  0  0  0  0  0  0  0  0  0  0  0
    7.8393   -6.6373    0.0000 C   0  0  0  0  0  0  0  0  0  0  0  0
    8.6332   -6.9961    0.0000 O   0  0  0  0  0  0  0  0  0  0  0  0
    8.5548   -8.6849    0.0000 C   0  0  0  0  0  0  0  0  0  0  0  0
    9.2665   -9.0927    0.0000 C   0  0  0  0  0  0  0  0  0  0  0  0
    9.9770   -8.6794    0.0000 C   0  0  0  0  0  0  0  0  0  0  0  0
    9.9713   -7.8542    0.0000 C   0  0  0  0  0  0  0  0  0  0  0  0
    9.2589   -7.4501    0.0000 C   0  0  0  0  0  0  0  0  0  0  0  0
    8.5506   -6.2289    0.0000 C   0  0  0  0  0  0  0  0  0  0  0  0
    8.5479   -5.4087    0.0000 N   0  0  0  0  0  0  0  0  0  0  0  0
    7.8347   -5.0000    0.0000 C   0  0  0  0  0  0  0  0  0  0  0  0
    7.1229   -5.4176    0.0000 C   0  0  0  0  0  0  0  0  0  0  0  0
    7.1291   -6.2365    0.0000 C   0  0  0  0  0  0  0  0  0  0  0  0
    5.0000   -9.1086    0.0000 Cl  0  0  0  0  0  0  0  0  0  0  0  0
   10.6901   -9.0863    0.0000 Br  0  0  0  0  0  0  0  0  0  0  0  0
  5  7  1  0  0  0  0
 14 15  2  0  0  0  0
 15  8  1  0  0  0  0
  3  4  2  0  0  0  0
  9 16  2  0  0  0  0
  7  8  1  0  0  0  0
 16 17  1  0  0  0  0
 17 18  2  0  0  0  0
  7  9  1  0  0  0  0
 18 19  1  0  0  0  0
  4  5  1  0  0  0  0
 19 20  2  0  0  0  0
 20  9  1  0  0  0  0
  7 10  1  0  0  0  0
  2 21  1  0  0  0  0
  2  3  1  0  0  0  0
  8 11  2  0  0  0  0
  5  6  2  0  0  0  0
 11 12  1  0  0  0  0
 13 22  1  0  0  0  0
  6  1  1  0  0  0  0
 12 13  2  0  0  0  0
  1  2  2  0  0  0  0
 13 14  1  0  0  0  0
M  END
> <Molecule Name>
DNDI1338489

> <CDD Number>
CDD-1535289

> <IC50_uM>
0.031 (n=1)

$$$$

SketchEl molfile

 19 21  0  0  0  0  0  0  0  0999 V2000
    6.3046   -7.8868    0.0000 N   0  0  0  0  0  0  0  0  0  0  0  0
    7.0178   -7.4714    0.0000 C   0  0  0  0  0  0  0  0  0  0  0  0
    7.7342   -7.8814    0.0000 C   0  0  0  0  0  0  0  0  0  0  0  0
    7.0147   -6.6460    0.0000 C   0  0  0  0  0  0  0  0  0  0  0  0
    7.7339   -8.7044    0.0000 C   0  0  0  0  0  0  0  0  0  0  0  0
    8.4494   -9.1143    0.0000 C   0  0  0  0  0  0  0  0  0  0  0  0
    9.1636   -8.6989    0.0000 C   0  0  0  0  0  0  0  0  0  0  0  0
    9.1579   -7.8692    0.0000 C   0  0  0  0  0  0  0  0  0  0  0  0
    8.4418   -7.4631    0.0000 C   0  0  0  0  0  0  0  0  0  0  0  0
    7.7297   -6.2355    0.0000 C   0  0  0  0  0  0  0  0  0  0  0  0
    7.7270   -5.4109    0.0000 N   0  0  0  0  0  0  0  0  0  0  0  0
    7.0101   -5.0000    0.0000 C   0  0  0  0  0  0  0  0  0  0  0  0
    6.2945   -5.4199    0.0000 C   0  0  0  0  0  0  0  0  0  0  0  0
    6.3008   -6.2431    0.0000 C   0  0  0  0  0  0  0  0  0  0  0  0
    9.8805   -9.1079    0.0000 Cl  0  0  0  0  0  0  0  0  0  0  0  0
    5.5500   -7.5548    0.0000 C   0  0  0  0  0  0  0  0  0  0  0  0
    5.0000   -8.1702    0.0000 C   0  0  0  0  0  0  0  0  0  0  0  0
    5.4154   -8.8835    0.0000 C   0  0  0  0  0  0  0  0  0  0  0  0
    6.2220   -8.7087    0.0000 N   0  0  0  0  0  0  0  0  0  0  0  0
  4 10  2  0  0  0  0
  2  3  1  0  0  0  0
 10 11  1  0  0  0  0
 11 12  2  0  0  0  0
  2  4  1  0  0  0  0
 12 13  1  0  0  0  0
 13 14  2  0  0  0  0
 14  4  1  0  0  0  0
  3  5  2  0  0  0  0
  5  6  1  0  0  0  0
  7 15  1  0  0  0  0
  6  7  2  0  0  0  0
  7  8  1  0  0  0  0
  1 16  1  0  0  0  0
  1  2  1  0  0  0  0
  8  9  2  0  0  0  0
  9  3  1  0  0  0  0
 16 17  2  0  0  0  0
 17 18  1  0  0  0  0
 18 19  2  0  0  0  0
 19  1  1  0  0  0  0
M  END
> <Molecule Name>
DNDI1338490

> <CDD Number>
CDD-1535290

> <IC50_uM>
0.29 (n=1)

$$$$

SketchEl molfile

 24 26  0  0  0  0  0  0  0  0999 V2000
    7.9229   -8.2640    0.0000 N   0  0  0  0  0  0  0  0  0  0  0  0
    7.9167   -9.1036    0.0000 C   0  0  0  0  0  0  0  0  0  0  0  0
    7.1864   -9.5180    0.0000 C   0  0  0  0  0  0  0  0  0  0  0  0
    8.6407   -9.5289    0.0000 C   0  0  0  0  0  0  0  0  0  0  0  0
    6.4662   -9.0911    0.0000 C   0  0  0  0  0  0  0  0  0  0  0  0
    5.7364   -9.5048    0.0000 C   0  0  0  0  0  0  0  0  0  0  0  0
    5.7297  -10.3453    0.0000 C   0  0  0  0  0  0  0  0  0  0  0  0
    6.4588  -10.7704    0.0000 C   0  0  0  0  0  0  0  0  0  0  0  0
    7.1856  -10.3543    0.0000 C   0  0  0  0  0  0  0  0  0  0  0  0
    8.6293  -10.3676    0.0000 C   0  0  0  0  0  0  0  0  0  0  0  0
    9.3524  -10.7927    0.0000 N   0  0  0  0  0  0  0  0  0  0  0  0
   10.0837  -10.3783    0.0000 C   0  0  0  0  0  0  0  0  0  0  0  0
   10.0873   -9.5343    0.0000 C   0  0  0  0  0  0  0  0  0  0  0  0
    9.3635   -9.1129    0.0000 C   0  0  0  0  0  0  0  0  0  0  0  0
    5.0000  -10.7606    0.0000 Cl  0  0  0  0  0  0  0  0  0  0  0  0
    8.6528   -7.8556    0.0000 C   0  0  0  0  0  0  0  0  0  0  0  0
    8.6611   -7.0196    0.0000 C   0  0  0  0  0  0  0  0  0  0  0  0
    7.9390   -6.5905    0.0000 N   0  0  0  0  0  0  0  0  0  0  0  0
    7.2068   -7.0036    0.0000 C   0  0  0  0  0  0  0  0  0  0  0  0
    7.1968   -7.8459    0.0000 C   0  0  0  0  0  0  0  0  0  0  0  0
    7.9484   -5.7509    0.0000 S   0  0  0  0  0  0  0  0  0  0  0  0
    7.9508   -5.0000    0.0000 C   0  0  0  0  0  0  0  0  0  0  0  0
    7.2515   -5.7639    0.0000 O   0  0  0  0  0  0  0  0  0  0  0  0
    8.6509   -5.7653    0.0000 O   0  0  0  0  0  0  0  0  0  0  0  0
  3  5  2  0  0  0  0
  5  6  1  0  0  0  0
  7 15  1  0  0  0  0
  6  7  2  0  0  0  0
  7  8  1  0  0  0  0
  1  2  1  0  0  0  0
  8  9  2  0  0  0  0
  9  3  1  0  0  0  0
  1 16  1  0  0  0  0
  4 10  2  0  0  0  0
  2  3  1  0  0  0  0
 10 11  1  0  0  0  0
 11 12  2  0  0  0  0
  1 20  1  0  0  0  0
 16 17  1  0  0  0  0
 17 18  1  0  0  0  0
 18 19  1  0  0  0  0
 19 20  1  0  0  0  0
  2  4  1  0  0  0  0
 18 21  1  0  0  0  0
 12 13  1  0  0  0  0
 21 22  1  0  0  0  0
 13 14  2  0  0  0  0
 21 23  2  0  0  0  0
 14  4  1  0  0  0  0
 21 24  2  0  0  0  0
M  END
> <Molecule Name>
DNDI1338491

> <CDD Number>
CDD-1535291

> <IC50_uM>
0.11 (n=1)

$$$$

SketchEl molfile

 28 31  0  0  0  0  0  0  0  0999 V2000
    7.8738   -9.1171    0.0000 N   0  0  0  0  0  0  0  0  0  0  0  0
    7.8676   -9.9426    0.0000 C   0  0  0  0  0  0  0  0  0  0  0  0
    7.1496  -10.3501    0.0000 C   0  0  0  0  0  0  0  0  0  0  0  0
    8.5795  -10.3607    0.0000 C   0  0  0  0  0  0  0  0  0  0  0  0
    6.4416   -9.9303    0.0000 C   0  0  0  0  0  0  0  0  0  0  0  0
    5.7241  -10.3370    0.0000 C   0  0  0  0  0  0  0  0  0  0  0  0
    5.7174  -11.1634    0.0000 C   0  0  0  0  0  0  0  0  0  0  0  0
    6.4343  -11.5814    0.0000 C   0  0  0  0  0  0  0  0  0  0  0  0
    7.1489  -11.1722    0.0000 C   0  0  0  0  0  0  0  0  0  0  0  0
    8.5682  -11.1853    0.0000 C   0  0  0  0  0  0  0  0  0  0  0  0
    9.2792  -11.6033    0.0000 N   0  0  0  0  0  0  0  0  0  0  0  0
    9.9982  -11.1958    0.0000 C   0  0  0  0  0  0  0  0  0  0  0  0
   10.0017  -10.3660    0.0000 C   0  0  0  0  0  0  0  0  0  0  0  0
    9.2901   -9.9518    0.0000 C   0  0  0  0  0  0  0  0  0  0  0  0
    5.0000  -11.5718    0.0000 Cl  0  0  0  0  0  0  0  0  0  0  0  0
    8.5914   -8.7156    0.0000 C   0  0  0  0  0  0  0  0  0  0  0  0
    8.5995   -7.8937    0.0000 C   0  0  0  0  0  0  0  0  0  0  0  0
    7.8895   -7.4717    0.0000 N   0  0  0  0  0  0  0  0  0  0  0  0
    7.1697   -7.8779    0.0000 C   0  0  0  0  0  0  0  0  0  0  0  0
    7.1599   -8.7060    0.0000 C   0  0  0  0  0  0  0  0  0  0  0  0
    7.8988   -6.6463    0.0000 C   0  0  0  0  0  0  0  0  0  0  0  0
    8.6210   -6.2463    0.0000 C   0  0  0  0  0  0  0  0  0  0  0  0
    8.6306   -5.4216    0.0000 C   0  0  0  0  0  0  0  0  0  0  0  0
    7.9198   -5.0000    0.0000 C   0  0  0  0  0  0  0  0  0  0  0  0
    7.1979   -5.4091    0.0000 C   0  0  0  0  0  0  0  0  0  0  0  0
    7.1918   -6.2325    0.0000 C   0  0  0  0  0  0  0  0  0  0  0  0
    9.3297   -6.6696    0.0000 O   0  0  0  0  0  0  0  0  0  0  0  0
    9.3175   -7.4951    0.0000 C   0  0  0  0  0  0  0  0  0  0  0  0
  9  3  1  0  0  0  0
  1 16  1  0  0  0  0
  4 10  2  0  0  0  0
  2  3  1  0  0  0  0
 10 11  1  0  0  0  0
 11 12  2  0  0  0  0
  1 20  1  0  0  0  0
 16 17  1  0  0  0  0
 17 18  1  0  0  0  0
 18 19  1  0  0  0  0
 19 20  1  0  0  0  0
  2  4  1  0  0  0  0
 12 13  1  0  0  0  0
 13 14  2  0  0  0  0
 14  4  1  0  0  0  0
 18 21  1  0  0  0  0
  3  5  2  0  0  0  0
 21 22  2  0  0  0  0
  5  6  1  0  0  0  0
 22 23  1  0  0  0  0
  7 15  1  0  0  0  0
 23 24  2  0  0  0  0
  6  7  2  0  0  0  0
 24 25  1  0  0  0  0
  7  8  1  0  0  0  0
 25 26  2  0  0  0  0
 26 21  1  0  0  0  0
  1  2  1  0  0  0  0
 22 27  1  0  0  0  0
  8  9  2  0  0  0  0
 27 28  1  0  0  0  0
M  END
> <Molecule Name>
DNDI1338492

> <CDD Number>
CDD-1535292

> <IC50_uM>
0.02 (n=1)

$$$$

SketchEl molfile

 21 23  0  0  0  0  0  0  0  0999 V2000
    6.3045   -7.8866    0.0000 C   0  0  0  0  0  0  0  0  0  0  0  0
    7.0177   -7.4712    0.0000 C   0  0  0  0  0  0  0  0  0  0  0  0
    7.7340   -7.8812    0.0000 C   0  0  0  0  0  0  0  0  0  0  0  0
    7.0146   -6.6459    0.0000 C   0  0  0  0  0  0  0  0  0  0  0  0
    7.7338   -8.7042    0.0000 C   0  0  0  0  0  0  0  0  0  0  0  0
    8.4492   -9.1140    0.0000 C   0  0  0  0  0  0  0  0  0  0  0  0
    9.1634   -8.6986    0.0000 C   0  0  0  0  0  0  0  0  0  0  0  0
    9.1576   -7.8691    0.0000 C   0  0  0  0  0  0  0  0  0  0  0  0
    8.4416   -7.4629    0.0000 C   0  0  0  0  0  0  0  0  0  0  0  0
    7.7296   -6.2354    0.0000 C   0  0  0  0  0  0  0  0  0  0  0  0
    7.7268   -5.4108    0.0000 N   0  0  0  0  0  0  0  0  0  0  0  0
    7.0100   -5.0000    0.0000 C   0  0  0  0  0  0  0  0  0  0  0  0
    6.2944   -5.4198    0.0000 C   0  0  0  0  0  0  0  0  0  0  0  0
    6.3007   -6.2430    0.0000 C   0  0  0  0  0  0  0  0  0  0  0  0
    9.8803   -9.1076    0.0000 Cl  0  0  0  0  0  0  0  0  0  0  0  0
    5.5499   -7.5546    0.0000 C   0  0  0  0  0  0  0  0  0  0  0  0
    5.0000   -8.1700    0.0000 C   0  0  0  0  0  0  0  0  0  0  0  0
    5.4154   -8.8833    0.0000 C   0  0  0  0  0  0  0  0  0  0  0  0
    6.2220   -8.7085    0.0000 S   0  0  0  0  0  0  0  0  0  0  0  0
    7.0196   -9.1179    0.0000 F   0  0  0  0  0  0  0  0  0  0  0  0
    7.7293   -7.0524    0.0000 O   0  0  0  0  0  0  0  0  0  0  0  0
  2  3  1  0  0  0  0
 10 11  1  0  0  0  0
 11 12  2  0  0  0  0
  2  4  1  0  0  0  0
 12 13  1  0  0  0  0
 13 14  2  0  0  0  0
 14  4  1  0  0  0  0
  3  5  2  0  0  0  0
  5  6  1  0  0  0  0
  7 15  1  0  0  0  0
  6  7  2  0  0  0  0
  7  8  1  0  0  0  0
  1 16  2  0  0  0  0
  1  2  1  0  0  0  0
  8  9  2  0  0  0  0
  9  3  1  0  0  0  0
 16 17  1  0  0  0  0
 17 18  2  0  0  0  0
 18 19  1  0  0  0  0
 19  1  1  0  0  0  0
  5 20  1  0  0  0  0
  4 10  2  0  0  0  0
  2 21  1  0  0  0  0
M  END
> <Molecule Name>
DNDI1340245

> <CDD Number>
CDD-1535293

> <IC50_uM>
0.005 (n=1)

$$$$

SketchEl molfile

 22 24  0  0  0  0  0  0  0  0999 V2000
    7.1272   -8.2823    0.0000 C   0  0  0  0  0  0  0  0  0  0  0  0
    7.1272   -7.4613    0.0000 C   0  0  0  0  0  0  0  0  0  0  0  0
    6.4181   -8.6928    0.0000 C   0  0  0  0  0  0  0  0  0  0  0  0
    7.8404   -8.6928    0.0000 C   0  0  0  0  0  0  0  0  0  0  0  0
    5.7132   -9.9202    0.0000 N   0  0  0  0  0  0  0  0  0  0  0  0
    7.8362   -9.5138    0.0000 C   0  0  0  0  0  0  0  0  0  0  0  0
    8.5204   -8.2491    0.0000 C   0  0  0  0  0  0  0  0  0  0  0  0
    7.8901   -7.8179    0.0000 O   0  0  0  0  0  0  0  0  0  0  0  0
    9.2585   -9.5138    0.0000 C   0  0  0  0  0  0  0  0  0  0  0  0
    8.5453   -9.9243    0.0000 C   0  0  0  0  0  0  0  0  0  0  0  0
    9.2543   -8.6886    0.0000 C   0  0  0  0  0  0  0  0  0  0  0  0
    6.4223   -9.5096    0.0000 C   0  0  0  0  0  0  0  0  0  0  0  0
    5.7091   -8.2781    0.0000 C   0  0  0  0  0  0  0  0  0  0  0  0
    5.0000   -9.5096    0.0000 C   0  0  0  0  0  0  0  0  0  0  0  0
    5.0000   -8.6886    0.0000 C   0  0  0  0  0  0  0  0  0  0  0  0
    9.9703   -9.9230    0.0000 Cl  0  0  0  0  0  0  0  0  0  0  0  0
    7.8405   -7.0526    0.0000 C   0  0  0  0  0  0  0  0  0  0  0  0
    7.8409   -6.2324    0.0000 N   0  0  0  0  0  0  0  0  0  0  0  0
    7.1293   -5.8210    0.0000 C   0  0  0  0  0  0  0  0  0  0  0  0
    6.4159   -6.2359    0.0000 N   0  0  0  0  0  0  0  0  0  0  0  0
    6.4191   -7.0548    0.0000 C   0  0  0  0  0  0  0  0  0  0  0  0
    7.1282   -5.0000    0.0000 Cl  0  0  0  0  0  0  0  0  0  0  0  0
 10  6  1  0  0  0  0
 11  7  2  0  0  0  0
 12  3  1  0  0  0  0
 13  3  2  0  0  0  0
  9 16  1  0  0  0  0
 14 15  2  0  0  0  0
 15 13  1  0  0  0  0
  9 10  2  0  0  0  0
  5 14  1  0  0  0  0
  2  1  1  0  0  0  0
  2 17  2  0  0  0  0
  3  1  1  0  0  0  0
 17 18  1  0  0  0  0
  4  1  1  0  0  0  0
 18 19  2  0  0  0  0
  5 12  2  0  0  0  0
 19 20  1  0  0  0  0
  6  4  2  0  0  0  0
 20 21  2  0  0  0  0
 21  2  1  0  0  0  0
  7  4  1  0  0  0  0
  8  1  1  0  0  0  0
  9 11  1  0  0  0  0
 19 22  1  0  0  0  0
M  END
> <Molecule Name>
DNDI1340246

> <CDD Number>
CDD-1535294

> <IC50_uM>
0.279714139792753 ร/รท 2.14620402303988 (n=2)

$$$$

SketchEl molfile

 24 26  0  0  0  0  0  0  0  0999 V2000
    7.1350   -9.9393    0.0000 C   0  0  0  0  0  0  0  0  0  0  0  0
    7.1350   -9.1153    0.0000 N   0  0  0  0  0  0  0  0  0  0  0  0
    6.4234  -10.3513    0.0000 C   0  0  0  0  0  0  0  0  0  0  0  0
    7.8509  -10.3513    0.0000 C   0  0  0  0  0  0  0  0  0  0  0  0
    5.7158  -11.5832    0.0000 N   0  0  0  0  0  0  0  0  0  0  0  0
    7.8467  -11.1754    0.0000 C   0  0  0  0  0  0  0  0  0  0  0  0
    8.5334   -9.9060    0.0000 C   0  0  0  0  0  0  0  0  0  0  0  0
    9.2742  -11.1754    0.0000 C   0  0  0  0  0  0  0  0  0  0  0  0
    8.5584  -11.5874    0.0000 C   0  0  0  0  0  0  0  0  0  0  0  0
    9.2701  -10.3472    0.0000 C   0  0  0  0  0  0  0  0  0  0  0  0
    6.4275  -11.1712    0.0000 C   0  0  0  0  0  0  0  0  0  0  0  0
    5.7117   -9.9351    0.0000 C   0  0  0  0  0  0  0  0  0  0  0  0
    5.0000  -11.1712    0.0000 C   0  0  0  0  0  0  0  0  0  0  0  0
    5.0000  -10.3472    0.0000 C   0  0  0  0  0  0  0  0  0  0  0  0
    9.9886  -11.5861    0.0000 Cl  0  0  0  0  0  0  0  0  0  0  0  0
    7.8510   -8.7051    0.0000 C   0  0  0  0  0  0  0  0  0  0  0  0
    7.8538   -7.8811    0.0000 C   0  0  0  0  0  0  0  0  0  0  0  0
    8.5689   -7.4732    0.0000 C   0  0  0  0  0  0  0  0  0  0  0  0
    8.5720   -6.6499    0.0000 C   0  0  0  0  0  0  0  0  0  0  0  0
    7.8592   -6.2346    0.0000 C   0  0  0  0  0  0  0  0  0  0  0  0
    7.1418   -6.6487    0.0000 C   0  0  0  0  0  0  0  0  0  0  0  0
    7.1422   -7.4706    0.0000 C   0  0  0  0  0  0  0  0  0  0  0  0
    7.8609   -5.4106    0.0000 O   0  0  0  0  0  0  0  0  0  0  0  0
    8.5754   -5.0000    0.0000 C   0  0  0  0  0  0  0  0  0  0  0  0
  8  9  2  0  0  0  0
  5 13  1  0  0  0  0
  2  1  1  0  0  0  0
  2 16  1  0  0  0  0
  3  1  1  0  0  0  0
  4  1  1  0  0  0  0
  5 11  2  0  0  0  0
  6  4  2  0  0  0  0
  7  4  1  0  0  0  0
  8 10  1  0  0  0  0
 16 17  1  0  0  0  0
  9  6  1  0  0  0  0
 17 18  2  0  0  0  0
 10  7  2  0  0  0  0
 18 19  1  0  0  0  0
 11  3  1  0  0  0  0
 19 20  2  0  0  0  0
 12  3  2  0  0  0  0
 20 21  1  0  0  0  0
  8 15  1  0  0  0  0
 21 22  2  0  0  0  0
 22 17  1  0  0  0  0
 13 14  2  0  0  0  0
 20 23  1  0  0  0  0
 14 12  1  0  0  0  0
 23 24  1  0  0  0  0
M  END
> <Molecule Name>
DNDI1340247

> <CDD Number>
CDD-1535295

> <IC50_uM>
0.078 (n=1)

$$$$

SketchEl molfile

 22 24  0  0  0  0  0  0  0  0999 V2000
    7.8737   -9.1171    0.0000 N   0  0  0  0  0  0  0  0  0  0  0  0
    7.8676   -9.9425    0.0000 C   0  0  0  0  0  0  0  0  0  0  0  0
    7.1496  -10.3499    0.0000 C   0  0  0  0  0  0  0  0  0  0  0  0
    6.4415   -9.9302    0.0000 C   0  0  0  0  0  0  0  0  0  0  0  0
    5.7240  -10.3369    0.0000 C   0  0  0  0  0  0  0  0  0  0  0  0
    5.7174  -11.1632    0.0000 C   0  0  0  0  0  0  0  0  0  0  0  0
    6.4343  -11.5812    0.0000 C   0  0  0  0  0  0  0  0  0  0  0  0
    7.1488  -11.1721    0.0000 C   0  0  0  0  0  0  0  0  0  0  0  0
    5.0000  -11.5716    0.0000 Cl  0  0  0  0  0  0  0  0  0  0  0  0
    8.5913   -8.7155    0.0000 C   0  0  0  0  0  0  0  0  0  0  0  0
    8.5994   -7.8936    0.0000 C   0  0  0  0  0  0  0  0  0  0  0  0
    7.8895   -7.4717    0.0000 N   0  0  0  0  0  0  0  0  0  0  0  0
    7.1697   -7.8778    0.0000 C   0  0  0  0  0  0  0  0  0  0  0  0
    7.1598   -8.7059    0.0000 C   0  0  0  0  0  0  0  0  0  0  0  0
    7.8988   -6.6462    0.0000 C   0  0  0  0  0  0  0  0  0  0  0  0
    8.6209   -6.2463    0.0000 C   0  0  0  0  0  0  0  0  0  0  0  0
    8.6305   -5.4217    0.0000 C   0  0  0  0  0  0  0  0  0  0  0  0
    7.9197   -5.0000    0.0000 C   0  0  0  0  0  0  0  0  0  0  0  0
    7.1978   -5.4091    0.0000 C   0  0  0  0  0  0  0  0  0  0  0  0
    7.1917   -6.2325    0.0000 C   0  0  0  0  0  0  0  0  0  0  0  0
    8.5794  -10.3606    0.0000 C   0  0  0  0  0  0  0  0  0  0  0  0
    8.5732  -11.1861    0.0000 N   0  0  0  0  0  0  0  0  0  0  0  0
  2 21  1  0  0  0  0
 21 22  3  0  0  0  0
  2  3  1  0  0  0  0
  1 14  1  0  0  0  0
 10 11  1  0  0  0  0
 11 12  1  0  0  0  0
 12 13  1  0  0  0  0
 13 14  1  0  0  0  0
 12 15  1  0  0  0  0
  3  4  2  0  0  0  0
 15 16  2  0  0  0  0
  4  5  1  0  0  0  0
 16 17  1  0  0  0  0
  6  9  1  0  0  0  0
 17 18  2  0  0  0  0
  5  6  2  0  0  0  0
 18 19  1  0  0  0  0
  6  7  1  0  0  0  0
 19 20  2  0  0  0  0
 20 15  1  0  0  0  0
  1  2  1  0  0  0  0
  7  8  2  0  0  0  0
  8  3  1  0  0  0  0
  1 10  1  0  0  0  0
M  END
> <Molecule Name>
DNDI1340248

> <CDD Number>
CDD-1535296

> <IC50_uM>
> 1.0 (n=1)

$$$$

SketchEl molfile

 22 24  0  0  0  0  0  0  0  0999 V2000
    7.8379   -7.4613    0.0000 C   0  0  0  0  0  0  0  0  0  0  0  0
    7.8379   -6.6403    0.0000 C   0  0  0  0  0  0  0  0  0  0  0  0
    7.1289   -7.8718    0.0000 C   0  0  0  0  0  0  0  0  0  0  0  0
    8.5511   -7.8718    0.0000 C   0  0  0  0  0  0  0  0  0  0  0  0
    6.4240   -9.0992    0.0000 C   0  0  0  0  0  0  0  0  0  0  0  0
    8.5470   -8.6928    0.0000 C   0  0  0  0  0  0  0  0  0  0  0  0
    9.2312   -7.4281    0.0000 C   0  0  0  0  0  0  0  0  0  0  0  0
    8.6009   -6.9969    0.0000 O   0  0  0  0  0  0  0  0  0  0  0  0
    9.9692   -8.6928    0.0000 C   0  0  0  0  0  0  0  0  0  0  0  0
    9.2560   -9.1033    0.0000 C   0  0  0  0  0  0  0  0  0  0  0  0
    9.9651   -7.8676    0.0000 C   0  0  0  0  0  0  0  0  0  0  0  0
    7.1330   -8.6886    0.0000 C   0  0  0  0  0  0  0  0  0  0  0  0
    6.4198   -7.4571    0.0000 C   0  0  0  0  0  0  0  0  0  0  0  0
    5.7107   -8.6886    0.0000 C   0  0  0  0  0  0  0  0  0  0  0  0
    5.7107   -7.8676    0.0000 C   0  0  0  0  0  0  0  0  0  0  0  0
   10.6810   -9.1020    0.0000 Cl  0  0  0  0  0  0  0  0  0  0  0  0
    8.5512   -6.2316    0.0000 C   0  0  0  0  0  0  0  0  0  0  0  0
    8.5516   -5.4114    0.0000 N   0  0  0  0  0  0  0  0  0  0  0  0
    7.8400   -5.0000    0.0000 C   0  0  0  0  0  0  0  0  0  0  0  0
    7.1267   -5.4149    0.0000 N   0  0  0  0  0  0  0  0  0  0  0  0
    7.1298   -6.2338    0.0000 C   0  0  0  0  0  0  0  0  0  0  0  0
    5.0000   -9.0996    0.0000 Br  0  0  0  0  0  0  0  0  0  0  0  0
 10  6  1  0  0  0  0
 11  7  2  0  0  0  0
 12  3  1  0  0  0  0
 13  3  2  0  0  0  0
  9 16  1  0  0  0  0
 14 15  2  0  0  0  0
 15 13  1  0  0  0  0
  9 10  2  0  0  0  0
  5 14  1  0  0  0  0
  2  1  1  0  0  0  0
  2 17  2  0  0  0  0
  3  1  1  0  0  0  0
 17 18  1  0  0  0  0
  4  1  1  0  0  0  0
 18 19  2  0  0  0  0
  5 12  2  0  0  0  0
 19 20  1  0  0  0  0
  6  4  2  0  0  0  0
 20 21  2  0  0  0  0
 21  2  1  0  0  0  0
  7  4  1  0  0  0  0
  8  1  1  0  0  0  0
  9 11  1  0  0  0  0
 14 22  1  0  0  0  0
M  END
> <Molecule Name>
DNDI1342984

> <CDD Number>
CDD-1535297

> <IC50_uM>
0.144 (n=1)

$$$$

SketchEl molfile

 23 25  0  0  0  0  0  0  0  0999 V2000
    7.1276   -8.2829    0.0000 C   0  0  0  0  0  0  0  0  0  0  0  0
    7.1276   -7.4617    0.0000 C   0  0  0  0  0  0  0  0  0  0  0  0
    6.4184   -8.6934    0.0000 C   0  0  0  0  0  0  0  0  0  0  0  0
    7.8409   -8.6934    0.0000 C   0  0  0  0  0  0  0  0  0  0  0  0
    5.7133   -9.9211    0.0000 N   0  0  0  0  0  0  0  0  0  0  0  0
    7.8368   -9.5146    0.0000 C   0  0  0  0  0  0  0  0  0  0  0  0
    8.5211   -8.2497    0.0000 C   0  0  0  0  0  0  0  0  0  0  0  0
    7.8907   -7.8184    0.0000 O   0  0  0  0  0  0  0  0  0  0  0  0
    9.2593   -9.5146    0.0000 C   0  0  0  0  0  0  0  0  0  0  0  0
    8.5460   -9.9252    0.0000 C   0  0  0  0  0  0  0  0  0  0  0  0
    9.2552   -8.6893    0.0000 C   0  0  0  0  0  0  0  0  0  0  0  0
    6.4225   -9.5105    0.0000 C   0  0  0  0  0  0  0  0  0  0  0  0
    5.7092   -8.2787    0.0000 C   0  0  0  0  0  0  0  0  0  0  0  0
    5.0000   -9.5105    0.0000 C   0  0  0  0  0  0  0  0  0  0  0  0
    5.0000   -8.6893    0.0000 C   0  0  0  0  0  0  0  0  0  0  0  0
    9.9712   -9.9239    0.0000 Cl  0  0  0  0  0  0  0  0  0  0  0  0
    7.8411   -7.0530    0.0000 C   0  0  0  0  0  0  0  0  0  0  0  0
    7.8414   -6.2325    0.0000 N   0  0  0  0  0  0  0  0  0  0  0  0
    7.1297   -5.8211    0.0000 C   0  0  0  0  0  0  0  0  0  0  0  0
    6.4162   -6.2361    0.0000 N   0  0  0  0  0  0  0  0  0  0  0  0
    6.4194   -7.0552    0.0000 C   0  0  0  0  0  0  0  0  0  0  0  0
    7.1286   -5.0000    0.0000 Cl  0  0  0  0  0  0  0  0  0  0  0  0
    7.1243   -9.9230    0.0000 F   0  0  0  0  0  0  0  0  0  0  0  0
 11  7  2  0  0  0  0
 12  3  1  0  0  0  0
 13  3  2  0  0  0  0
  9 16  1  0  0  0  0
 14 15  2  0  0  0  0
 15 13  1  0  0  0  0
  9 10  2  0  0  0  0
  5 14  1  0  0  0  0
  2  1  1  0  0  0  0
  2 17  2  0  0  0  0
  3  1  1  0  0  0  0
 17 18  1  0  0  0  0
  4  1  1  0  0  0  0
 18 19  2  0  0  0  0
  5 12  2  0  0  0  0
 19 20  1  0  0  0  0
  6  4  2  0  0  0  0
 20 21  2  0  0  0  0
 21  2  1  0  0  0  0
  7  4  1  0  0  0  0
  8  1  1  0  0  0  0
  9 11  1  0  0  0  0
 19 22  1  0  0  0  0
 10  6  1  0  0  0  0
  6 23  1  0  0  0  0
M  END
> <Molecule Name>
DNDI1342985

> <CDD Number>
CDD-1535298

> <IC50_uM>
0.179 (n=1)

$$$$

SketchEl molfile

 22 24  0  0  0  0  0  0  0  0999 V2000
    7.1272   -7.4613    0.0000 C   0  0  0  0  0  0  0  0  0  0  0  0
    7.1272   -6.6403    0.0000 C   0  0  0  0  0  0  0  0  0  0  0  0
    6.4181   -7.8718    0.0000 C   0  0  0  0  0  0  0  0  0  0  0  0
    7.8404   -7.8718    0.0000 C   0  0  0  0  0  0  0  0  0  0  0  0
    5.7132   -9.0992    0.0000 N   0  0  0  0  0  0  0  0  0  0  0  0
    7.8362   -8.6928    0.0000 C   0  0  0  0  0  0  0  0  0  0  0  0
    8.5204   -7.4281    0.0000 C   0  0  0  0  0  0  0  0  0  0  0  0
    7.8901   -6.9969    0.0000 O   0  0  0  0  0  0  0  0  0  0  0  0
    9.2585   -8.6928    0.0000 C   0  0  0  0  0  0  0  0  0  0  0  0
    8.5453   -9.1033    0.0000 C   0  0  0  0  0  0  0  0  0  0  0  0
    9.2543   -7.8676    0.0000 C   0  0  0  0  0  0  0  0  0  0  0  0
    6.4223   -8.6886    0.0000 C   0  0  0  0  0  0  0  0  0  0  0  0
    5.7091   -7.4571    0.0000 C   0  0  0  0  0  0  0  0  0  0  0  0
    5.0000   -8.6886    0.0000 C   0  0  0  0  0  0  0  0  0  0  0  0
    5.0000   -7.8676    0.0000 C   0  0  0  0  0  0  0  0  0  0  0  0
    9.9703   -9.1020    0.0000 Cl  0  0  0  0  0  0  0  0  0  0  0  0
    7.8405   -6.2316    0.0000 C   0  0  0  0  0  0  0  0  0  0  0  0
    7.8409   -5.4114    0.0000 N   0  0  0  0  0  0  0  0  0  0  0  0
    7.1293   -5.0000    0.0000 C   0  0  0  0  0  0  0  0  0  0  0  0
    6.4159   -5.4149    0.0000 N   0  0  0  0  0  0  0  0  0  0  0  0
    6.4191   -6.2338    0.0000 C   0  0  0  0  0  0  0  0  0  0  0  0
    5.7109   -6.6361    0.0000 C   0  0  0  0  0  0  0  0  0  0  0  0
 11  7  2  0  0  0  0
 12  3  1  0  0  0  0
 13  3  2  0  0  0  0
  9 16  1  0  0  0  0
 14 15  2  0  0  0  0
 15 13  1  0  0  0  0
  9 10  2  0  0  0  0
  5 14  1  0  0  0  0
  2  1  1  0  0  0  0
  2 17  2  0  0  0  0
  3  1  1  0  0  0  0
 17 18  1  0  0  0  0
  4  1  1  0  0  0  0
 18 19  2  0  0  0  0
  5 12  2  0  0  0  0
 19 20  1  0  0  0  0
  6  4  2  0  0  0  0
 20 21  2  0  0  0  0
 21  2  1  0  0  0  0
  7  4  1  0  0  0  0
  8  1  1  0  0  0  0
  9 11  1  0  0  0  0
 10  6  1  0  0  0  0
 13 22  1  0  0  0  0
M  END
> <Molecule Name>
DNDI1342986

> <CDD Number>
CDD-1535299

> <IC50_uM>
0.253 (n=1)

$$$$

SketchEl molfile

 26 28  0  0  0  0  0  0  0  0999 V2000
    7.1286   -9.5178    0.0000 C   0  0  0  0  0  0  0  0  0  0  0  0
    7.1286   -8.6963    0.0000 C   0  0  0  0  0  0  0  0  0  0  0  0
    6.4191   -9.9286    0.0000 C   0  0  0  0  0  0  0  0  0  0  0  0
    7.8423   -9.9286    0.0000 C   0  0  0  0  0  0  0  0  0  0  0  0
    5.7137  -11.1569    0.0000 N   0  0  0  0  0  0  0  0  0  0  0  0
    7.8382  -10.7502    0.0000 C   0  0  0  0  0  0  0  0  0  0  0  0
    8.5228   -9.4846    0.0000 C   0  0  0  0  0  0  0  0  0  0  0  0
    7.8921   -9.0531    0.0000 O   0  0  0  0  0  0  0  0  0  0  0  0
    9.2614  -10.7502    0.0000 C   0  0  0  0  0  0  0  0  0  0  0  0
    8.5477  -11.1610    0.0000 C   0  0  0  0  0  0  0  0  0  0  0  0
    9.2573   -9.9245    0.0000 C   0  0  0  0  0  0  0  0  0  0  0  0
    6.4232  -10.7461    0.0000 C   0  0  0  0  0  0  0  0  0  0  0  0
    5.7095   -9.5137    0.0000 C   0  0  0  0  0  0  0  0  0  0  0  0
    5.0000  -10.7461    0.0000 C   0  0  0  0  0  0  0  0  0  0  0  0
    5.0000   -9.9245    0.0000 C   0  0  0  0  0  0  0  0  0  0  0  0
    9.9737  -11.1597    0.0000 Cl  0  0  0  0  0  0  0  0  0  0  0  0
    7.8425   -8.2873    0.0000 C   0  0  0  0  0  0  0  0  0  0  0  0
    7.8428   -7.4665    0.0000 N   0  0  0  0  0  0  0  0  0  0  0  0
    7.1308   -7.0549    0.0000 C   0  0  0  0  0  0  0  0  0  0  0  0
    6.4169   -7.4701    0.0000 N   0  0  0  0  0  0  0  0  0  0  0  0
    6.4201   -8.2896    0.0000 C   0  0  0  0  0  0  0  0  0  0  0  0
    7.1297   -6.2333    0.0000 O   0  0  0  0  0  0  0  0  0  0  0  0
    7.8406   -5.8216    0.0000 C   0  0  0  0  0  0  0  0  0  0  0  0
    7.8395   -5.0000    0.0000 C   0  0  0  0  0  0  0  0  0  0  0  0
    8.5527   -6.2314    0.0000 C   0  0  0  0  0  0  0  0  0  0  0  0
    7.1254  -11.1588    0.0000 F   0  0  0  0  0  0  0  0  0  0  0  0
 14 15  2  0  0  0  0
 15 13  1  0  0  0  0
  9 10  2  0  0  0  0
  5 14  1  0  0  0  0
  2  1  1  0  0  0  0
  2 17  2  0  0  0  0
  3  1  1  0  0  0  0
 17 18  1  0  0  0  0
  4  1  1  0  0  0  0
 18 19  2  0  0  0  0
  5 12  2  0  0  0  0
 19 20  1  0  0  0  0
  6  4  2  0  0  0  0
 20 21  2  0  0  0  0
 21  2  1  0  0  0  0
  7  4  1  0  0  0  0
  8  1  1  0  0  0  0
  9 11  1  0  0  0  0
 10  6  1  0  0  0  0
 19 22  1  0  0  0  0
 11  7  2  0  0  0  0
 22 23  1  0  0  0  0
 12  3  1  0  0  0  0
 23 24  1  0  0  0  0
 13  3  2  0  0  0  0
 23 25  1  0  0  0  0
  9 16  1  0  0  0  0
  6 26  1  0  0  0  0
M  END
> <Molecule Name>
DNDI1342987

> <CDD Number>
CDD-1535300

> <IC50_uM>
0.0077 (n=1)

$$$$

SketchEl molfile

 25 27  0  0  0  0  0  0  0  0999 V2000
    7.1283   -8.2840    0.0000 C   0  0  0  0  0  0  0  0  0  0  0  0
    7.1283   -7.4625    0.0000 C   0  0  0  0  0  0  0  0  0  0  0  0
    6.4189   -8.6947    0.0000 C   0  0  0  0  0  0  0  0  0  0  0  0
    7.8419   -8.6947    0.0000 C   0  0  0  0  0  0  0  0  0  0  0  0
    5.7136   -9.9228    0.0000 N   0  0  0  0  0  0  0  0  0  0  0  0
    7.8378   -9.5162    0.0000 C   0  0  0  0  0  0  0  0  0  0  0  0
    8.5223   -8.2508    0.0000 C   0  0  0  0  0  0  0  0  0  0  0  0
    7.8917   -7.8193    0.0000 O   0  0  0  0  0  0  0  0  0  0  0  0
    9.2608   -9.5162    0.0000 C   0  0  0  0  0  0  0  0  0  0  0  0
    8.5472   -9.9269    0.0000 C   0  0  0  0  0  0  0  0  0  0  0  0
    9.2566   -8.6906    0.0000 C   0  0  0  0  0  0  0  0  0  0  0  0
    6.4230   -9.5120    0.0000 C   0  0  0  0  0  0  0  0  0  0  0  0
    5.7094   -8.2798    0.0000 C   0  0  0  0  0  0  0  0  0  0  0  0
    5.0000   -9.5120    0.0000 C   0  0  0  0  0  0  0  0  0  0  0  0
    5.0000   -8.6906    0.0000 C   0  0  0  0  0  0  0  0  0  0  0  0
    9.9729   -9.9256    0.0000 O   0  0  0  0  0  0  0  0  0  0  0  0
    7.8420   -7.0537    0.0000 C   0  0  0  0  0  0  0  0  0  0  0  0
    7.8424   -6.2330    0.0000 N   0  0  0  0  0  0  0  0  0  0  0  0
    7.1304   -5.8214    0.0000 C   0  0  0  0  0  0  0  0  0  0  0  0
    6.4167   -6.2366    0.0000 N   0  0  0  0  0  0  0  0  0  0  0  0
    6.4198   -7.0559    0.0000 C   0  0  0  0  0  0  0  0  0  0  0  0
    7.1293   -5.0000    0.0000 Cl  0  0  0  0  0  0  0  0  0  0  0  0
   10.6836   -9.5135    0.0000 C   0  0  0  0  0  0  0  0  0  0  0  0
   11.3957   -9.9230    0.0000 C   0  0  0  0  0  0  0  0  0  0  0  0
   10.6821   -8.6921    0.0000 C   0  0  0  0  0  0  0  0  0  0  0  0
  9 10  2  0  0  0  0
  5 14  1  0  0  0  0
  2  1  1  0  0  0  0
  2 17  2  0  0  0  0
  3  1  1  0  0  0  0
 17 18  1  0  0  0  0
  4  1  1  0  0  0  0
 18 19  2  0  0  0  0
  5 12  2  0  0  0  0
 19 20  1  0  0  0  0
  6  4  2  0  0  0  0
 20 21  2  0  0  0  0
 21  2  1  0  0  0  0
  7  4  1  0  0  0  0
  8  1  1  0  0  0  0
  9 11  1  0  0  0  0
 10  6  1  0  0  0  0
 19 22  1  0  0  0  0
 11  7  2  0  0  0  0
 12  3  1  0  0  0  0
 13  3  2  0  0  0  0
  9 16  1  0  0  0  0
 16 23  1  0  0  0  0
 14 15  2  0  0  0  0
 23 24  1  0  0  0  0
 15 13  1  0  0  0  0
 23 25  1  0  0  0  0
M  END
> <Molecule Name>
DNDI1342988

> <CDD Number>
CDD-1535301

> <IC50_uM>
0.293 (n=1)

$$$$

SketchEl molfile

 26 29  0  0  0  0  0  0  0  0999 V2000
    7.1382   -9.8503    0.0000 C   0  0  0  0  0  0  0  0  0  0  0  0
    7.1382   -9.0250    0.0000 N   0  0  0  0  0  0  0  0  0  0  0  0
    6.4255  -10.2629    0.0000 C   0  0  0  0  0  0  0  0  0  0  0  0
    7.8551  -10.2629    0.0000 C   0  0  0  0  0  0  0  0  0  0  0  0
    5.7169  -11.4966    0.0000 N   0  0  0  0  0  0  0  0  0  0  0  0
    7.8509  -11.0882    0.0000 C   0  0  0  0  0  0  0  0  0  0  0  0
    8.5387   -9.8169    0.0000 C   0  0  0  0  0  0  0  0  0  0  0  0
    9.2806  -11.0882    0.0000 C   0  0  0  0  0  0  0  0  0  0  0  0
    8.5637  -11.5008    0.0000 C   0  0  0  0  0  0  0  0  0  0  0  0
    9.2764  -10.2587    0.0000 C   0  0  0  0  0  0  0  0  0  0  0  0
    6.4296  -11.0840    0.0000 C   0  0  0  0  0  0  0  0  0  0  0  0
    5.7127   -9.8461    0.0000 C   0  0  0  0  0  0  0  0  0  0  0  0
    5.0000  -11.0840    0.0000 C   0  0  0  0  0  0  0  0  0  0  0  0
    5.0000  -10.2587    0.0000 C   0  0  0  0  0  0  0  0  0  0  0  0
    9.9961  -11.4995    0.0000 Cl  0  0  0  0  0  0  0  0  0  0  0  0
    7.8552   -8.6142    0.0000 C   0  0  0  0  0  0  0  0  0  0  0  0
    7.8580   -7.7889    0.0000 C   0  0  0  0  0  0  0  0  0  0  0  0
    8.5741   -7.3787    0.0000 C   0  0  0  0  0  0  0  0  0  0  0  0
    9.3248   -7.7158    0.0000 C   0  0  0  0  0  0  0  0  0  0  0  0
    9.8770   -7.1025    0.0000 N   0  0  0  0  0  0  0  0  0  0  0  0
    8.6611   -6.5572    0.0000 C   0  0  0  0  0  0  0  0  0  0  0  0
    9.4661   -6.3921    0.0000 C   0  0  0  0  0  0  0  0  0  0  0  0
    9.7241   -5.6139    0.0000 C   0  0  0  0  0  0  0  0  0  0  0  0
    9.1781   -5.0000    0.0000 C   0  0  0  0  0  0  0  0  0  0  0  0
    8.3708   -5.1697    0.0000 C   0  0  0  0  0  0  0  0  0  0  0  0
    8.1165   -5.9478    0.0000 C   0  0  0  0  0  0  0  0  0  0  0  0
  8 10  1  0  0  0  0
  9  6  1  0  0  0  0
 10  7  2  0  0  0  0
 11  3  1  0  0  0  0
 12  3  2  0  0  0  0
  8 15  1  0  0  0  0
 13 14  2  0  0  0  0
 14 12  1  0  0  0  0
 16 17  1  0  0  0  0
  8  9  2  0  0  0  0
 17 18  1  0  0  0  0
 18 19  2  0  0  0  0
  5 13  1  0  0  0  0
 19 20  1  0  0  0  0
 21 18  1  0  0  0  0
  2  1  1  0  0  0  0
 22 20  1  0  0  0  0
  2 16  1  0  0  0  0
  3  1  1  0  0  0  0
 21 22  2  0  0  0  0
  4  1  1  0  0  0  0
 22 23  1  0  0  0  0
  5 11  2  0  0  0  0
 23 24  2  0  0  0  0
  6  4  2  0  0  0  0
 24 25  1  0  0  0  0
  7  4  1  0  0  0  0
 25 26  2  0  0  0  0
 26 21  1  0  0  0  0
M  END
> <Molecule Name>
DNDI1342989

> <CDD Number>
CDD-1535302

> <IC50_uM>
0.014 (n=1)

$$$$

SketchEl molfile

 21 23  0  0  0  0  0  0  0  0999 V2000
    7.1340   -7.4660    0.0000 C   0  0  0  0  0  0  0  0  0  0  0  0
    7.1340   -6.6424    0.0000 N   0  0  0  0  0  0  0  0  0  0  0  0
    6.4227   -7.8778    0.0000 C   0  0  0  0  0  0  0  0  0  0  0  0
    7.8495   -7.8778    0.0000 C   0  0  0  0  0  0  0  0  0  0  0  0
    5.7155   -9.1091    0.0000 N   0  0  0  0  0  0  0  0  0  0  0  0
    7.8453   -8.7015    0.0000 C   0  0  0  0  0  0  0  0  0  0  0  0
    8.5317   -7.4327    0.0000 C   0  0  0  0  0  0  0  0  0  0  0  0
    9.2721   -8.7015    0.0000 C   0  0  0  0  0  0  0  0  0  0  0  0
    8.5566   -9.1133    0.0000 C   0  0  0  0  0  0  0  0  0  0  0  0
    9.2680   -7.8737    0.0000 C   0  0  0  0  0  0  0  0  0  0  0  0
    6.4268   -8.6973    0.0000 C   0  0  0  0  0  0  0  0  0  0  0  0
    5.7113   -7.4619    0.0000 C   0  0  0  0  0  0  0  0  0  0  0  0
    5.0000   -8.6973    0.0000 C   0  0  0  0  0  0  0  0  0  0  0  0
    5.0000   -7.8737    0.0000 C   0  0  0  0  0  0  0  0  0  0  0  0
    9.9862   -9.1120    0.0000 Cl  0  0  0  0  0  0  0  0  0  0  0  0
    7.8496   -6.2324    0.0000 N   0  0  0  0  0  0  0  0  0  0  0  0
    8.5604   -6.6485    0.0000 C   0  0  0  0  0  0  0  0  0  0  0  0
    9.2739   -6.2420    0.0000 C   0  0  0  0  0  0  0  0  0  0  0  0
    9.2809   -5.4170    0.0000 C   0  0  0  0  0  0  0  0  0  0  0  0
    8.5683   -5.0000    0.0000 C   0  0  0  0  0  0  0  0  0  0  0  0
    7.8486   -5.4081    0.0000 C   0  0  0  0  0  0  0  0  0  0  0  0
 12  3  2  0  0  0  0
  8 15  1  0  0  0  0
 13 14  2  0  0  0  0
 14 12  1  0  0  0  0
  8  9  2  0  0  0  0
  5 13  1  0  0  0  0
  2  1  2  0  0  0  0
  2 16  1  0  0  0  0
  3  1  1  0  0  0  0
  4  1  1  0  0  0  0
  5 11  2  0  0  0  0
  6  4  2  0  0  0  0
  7  4  1  0  0  0  0
 16 17  1  0  0  0  0
  8 10  1  0  0  0  0
  9  6  1  0  0  0  0
 10  7  2  0  0  0  0
 11  3  1  0  0  0  0
 16 21  1  0  0  0  0
 17 18  1  0  0  0  0
 18 19  1  0  0  0  0
 19 20  1  0  0  0  0
 20 21  1  0  0  0  0
M  END
> <Molecule Name>
DNDI1342990

> <CDD Number>
CDD-1535303

> <IC50_uM>
0.381 (n=1)

$$$$

SketchEl molfile

 24 26  0  0  0  0  0  0  0  0999 V2000
    7.1350   -6.9462    0.0000 C   0  0  0  0  0  0  0  0  0  0  0  0
    7.1350   -6.1221    0.0000 N   0  0  0  0  0  0  0  0  0  0  0  0
    6.4233   -7.3582    0.0000 C   0  0  0  0  0  0  0  0  0  0  0  0
    7.8508   -7.3582    0.0000 C   0  0  0  0  0  0  0  0  0  0  0  0
    5.7158   -8.5900    0.0000 N   0  0  0  0  0  0  0  0  0  0  0  0
    7.8466   -8.1822    0.0000 C   0  0  0  0  0  0  0  0  0  0  0  0
    8.5333   -6.9129    0.0000 C   0  0  0  0  0  0  0  0  0  0  0  0
    9.2741   -8.1822    0.0000 C   0  0  0  0  0  0  0  0  0  0  0  0
    8.5583   -8.5942    0.0000 C   0  0  0  0  0  0  0  0  0  0  0  0
    9.2699   -7.3540    0.0000 C   0  0  0  0  0  0  0  0  0  0  0  0
    6.4275   -8.1780    0.0000 C   0  0  0  0  0  0  0  0  0  0  0  0
    5.7117   -6.9420    0.0000 C   0  0  0  0  0  0  0  0  0  0  0  0
    5.0000   -8.1780    0.0000 C   0  0  0  0  0  0  0  0  0  0  0  0
    5.0000   -7.3540    0.0000 C   0  0  0  0  0  0  0  0  0  0  0  0
    9.9885   -8.5929    0.0000 Cl  0  0  0  0  0  0  0  0  0  0  0  0
    7.8509   -5.7120    0.0000 C   0  0  0  0  0  0  0  0  0  0  0  0
    8.5621   -6.1282    0.0000 C   0  0  0  0  0  0  0  0  0  0  0  0
    9.2759   -5.7216    0.0000 C   0  0  0  0  0  0  0  0  0  0  0  0
    9.9871   -6.1377    0.0000 N   0  0  0  0  0  0  0  0  0  0  0  0
   10.0717   -6.9558    0.0000 C   0  0  0  0  0  0  0  0  0  0  0  0
   10.8767   -7.1318    0.0000 C   0  0  0  0  0  0  0  0  0  0  0  0
   11.2929   -6.4205    0.0000 C   0  0  0  0  0  0  0  0  0  0  0  0
   10.7450   -5.8051    0.0000 C   0  0  0  0  0  0  0  0  0  0  0  0
   10.9207   -5.0000    0.0000 O   0  0  0  0  0  0  0  0  0  0  0  0
  5 13  1  0  0  0  0
  2  1  1  0  0  0  0
  2 16  1  0  0  0  0
  3  1  1  0  0  0  0
  4  1  1  0  0  0  0
  5 11  2  0  0  0  0
  6  4  2  0  0  0  0
  7  4  1  0  0  0  0
 16 17  1  0  0  0  0
  8 10  1  0  0  0  0
  9  6  1  0  0  0  0
 10  7  2  0  0  0  0
 11  3  1  0  0  0  0
 17 18  1  0  0  0  0
 18 19  1  0  0  0  0
 19 20  1  0  0  0  0
 12  3  2  0  0  0  0
  8 15  1  0  0  0  0
 13 14  2  0  0  0  0
 14 12  1  0  0  0  0
 20 21  1  0  0  0  0
 21 22  1  0  0  0  0
 22 23  1  0  0  0  0
 23 19  1  0  0  0  0
  8  9  2  0  0  0  0
 23 24  2  0  0  0  0
M  END
> <Molecule Name>
DNDI1342991

> <CDD Number>
CDD-1535304

> <IC50_uM>
0.378 (n=1)

$$$$

SketchEl molfile

 26 28  0  0  0  0  0  0  0  0999 V2000
    7.1393   -8.3010    0.0000 C   0  0  0  0  0  0  0  0  0  0  0  0
    7.1393   -7.4753    0.0000 C   0  0  0  0  0  0  0  0  0  0  0  0
    6.4262   -8.7138    0.0000 C   0  0  0  0  0  0  0  0  0  0  0  0
    7.8566   -8.7138    0.0000 C   0  0  0  0  0  0  0  0  0  0  0  0
    5.7173   -9.9482    0.0000 N   0  0  0  0  0  0  0  0  0  0  0  0
    7.8524   -9.5395    0.0000 C   0  0  0  0  0  0  0  0  0  0  0  0
    8.5405   -8.2676    0.0000 C   0  0  0  0  0  0  0  0  0  0  0  0
    7.9066   -7.8339    0.0000 O   0  0  0  0  0  0  0  0  0  0  0  0
    9.2828   -9.5395    0.0000 C   0  0  0  0  0  0  0  0  0  0  0  0
    8.5655   -9.9524    0.0000 C   0  0  0  0  0  0  0  0  0  0  0  0
    9.2786   -8.7097    0.0000 C   0  0  0  0  0  0  0  0  0  0  0  0
    6.4304   -9.5354    0.0000 C   0  0  0  0  0  0  0  0  0  0  0  0
    5.7131   -8.2968    0.0000 C   0  0  0  0  0  0  0  0  0  0  0  0
    5.0000   -9.5354    0.0000 C   0  0  0  0  0  0  0  0  0  0  0  0
    5.0000   -8.7097    0.0000 C   0  0  0  0  0  0  0  0  0  0  0  0
    9.9987   -9.9511    0.0000 N   0  0  0  0  0  0  0  0  0  0  0  0
    7.8567   -7.0643    0.0000 C   0  0  0  0  0  0  0  0  0  0  0  0
    7.8571   -6.2394    0.0000 C   0  0  0  0  0  0  0  0  0  0  0  0
    7.1415   -5.8257    0.0000 C   0  0  0  0  0  0  0  0  0  0  0  0
    6.4240   -6.2430    0.0000 C   0  0  0  0  0  0  0  0  0  0  0  0
    6.4272   -7.0666    0.0000 C   0  0  0  0  0  0  0  0  0  0  0  0
    7.1404   -5.0000    0.0000 Cl  0  0  0  0  0  0  0  0  0  0  0  0
   10.7130   -9.5369    0.0000 S   0  0  0  0  0  0  0  0  0  0  0  0
   11.4288   -9.9484    0.0000 C   0  0  0  0  0  0  0  0  0  0  0  0
   10.3528   -8.8447    0.0000 O   0  0  0  0  0  0  0  0  0  0  0  0
   11.0122   -8.8435    0.0000 O   0  0  0  0  0  0  0  0  0  0  0  0
  9 10  2  0  0  0  0
  5 14  1  0  0  0  0
  2  1  1  0  0  0  0
  2 17  2  0  0  0  0
  3  1  1  0  0  0  0
 17 18  1  0  0  0  0
  4  1  1  0  0  0  0
 18 19  2  0  0  0  0
  5 12  2  0  0  0  0
 19 20  1  0  0  0  0
  6  4  2  0  0  0  0
 20 21  2  0  0  0  0
 21  2  1  0  0  0  0
  7  4  1  0  0  0  0
  8  1  1  0  0  0  0
  9 11  1  0  0  0  0
 10  6  1  0  0  0  0
 19 22  1  0  0  0  0
 11  7  2  0  0  0  0
 12  3  1  0  0  0  0
 13  3  2  0  0  0  0
  9 16  1  0  0  0  0
 16 23  1  0  0  0  0
 14 15  2  0  0  0  0
 23 24  1  0  0  0  0
 15 13  1  0  0  0  0
 23 25  2  0  0  0  0
 23 26  2  0  0  0  0
M  END
> <Molecule Name>
DNDI1343533

> <CDD Number>
CDD-1535305

> <IC50_uM>
0.03 (n=1)

$$$$

SketchEl molfile

 22 24  0  0  0  0  0  0  0  0999 V2000
    7.8379   -7.4613    0.0000 C   0  0  0  0  0  0  0  0  0  0  0  0
    7.8379   -6.6403    0.0000 C   0  0  0  0  0  0  0  0  0  0  0  0
    7.1289   -7.8718    0.0000 C   0  0  0  0  0  0  0  0  0  0  0  0
    8.5511   -7.8718    0.0000 C   0  0  0  0  0  0  0  0  0  0  0  0
    6.4240   -9.0992    0.0000 N   0  0  0  0  0  0  0  0  0  0  0  0
    8.5470   -8.6928    0.0000 C   0  0  0  0  0  0  0  0  0  0  0  0
    9.2312   -7.4281    0.0000 C   0  0  0  0  0  0  0  0  0  0  0  0
    8.6009   -6.9969    0.0000 O   0  0  0  0  0  0  0  0  0  0  0  0
    9.9692   -8.6928    0.0000 C   0  0  0  0  0  0  0  0  0  0  0  0
    9.2560   -9.1033    0.0000 C   0  0  0  0  0  0  0  0  0  0  0  0
    9.9651   -7.8676    0.0000 C   0  0  0  0  0  0  0  0  0  0  0  0
    7.1330   -8.6886    0.0000 C   0  0  0  0  0  0  0  0  0  0  0  0
    6.4198   -7.4571    0.0000 C   0  0  0  0  0  0  0  0  0  0  0  0
    5.7107   -8.6886    0.0000 C   0  0  0  0  0  0  0  0  0  0  0  0
    5.7107   -7.8676    0.0000 C   0  0  0  0  0  0  0  0  0  0  0  0
   10.6810   -9.1020    0.0000 Cl  0  0  0  0  0  0  0  0  0  0  0  0
    8.5512   -6.2316    0.0000 C   0  0  0  0  0  0  0  0  0  0  0  0
    8.5516   -5.4114    0.0000 N   0  0  0  0  0  0  0  0  0  0  0  0
    7.8400   -5.0000    0.0000 C   0  0  0  0  0  0  0  0  0  0  0  0
    7.1267   -5.4149    0.0000 N   0  0  0  0  0  0  0  0  0  0  0  0
    7.1298   -6.2338    0.0000 C   0  0  0  0  0  0  0  0  0  0  0  0
    5.0000   -9.0996    0.0000 C   0  0  0  0  0  0  0  0  0  0  0  0
  9 10  2  0  0  0  0
  5 14  1  0  0  0  0
  2  1  1  0  0  0  0
  2 17  2  0  0  0  0
  3  1  1  0  0  0  0
 17 18  1  0  0  0  0
  4  1  1  0  0  0  0
 18 19  2  0  0  0  0
  5 12  2  0  0  0  0
 19 20  1  0  0  0  0
  6  4  2  0  0  0  0
 20 21  2  0  0  0  0
 21  2  1  0  0  0  0
  7  4  1  0  0  0  0
  8  1  1  0  0  0  0
  9 11  1  0  0  0  0
 10  6  1  0  0  0  0
 11  7  2  0  0  0  0
 12  3  1  0  0  0  0
 13  3  2  0  0  0  0
  9 16  1  0  0  0  0
 14 15  2  0  0  0  0
 15 13  1  0  0  0  0
 14 22  1  0  0  0  0
M  END
> <Molecule Name>
DNDI1343534

> <CDD Number>
CDD-1535306

> <IC50_uM>
0.435 (n=1)

$$$$

SketchEl molfile

 25 27  0  0  0  0  0  0  0  0999 V2000
    7.1283   -9.5172    0.0000 C   0  0  0  0  0  0  0  0  0  0  0  0
    7.1283   -8.6957    0.0000 C   0  0  0  0  0  0  0  0  0  0  0  0
    6.4189   -9.9279    0.0000 C   0  0  0  0  0  0  0  0  0  0  0  0
    7.8419   -9.9279    0.0000 C   0  0  0  0  0  0  0  0  0  0  0  0
    5.7136  -11.1560    0.0000 N   0  0  0  0  0  0  0  0  0  0  0  0
    7.8378  -10.7494    0.0000 C   0  0  0  0  0  0  0  0  0  0  0  0
    8.5223   -9.4840    0.0000 C   0  0  0  0  0  0  0  0  0  0  0  0
    7.8917   -9.0525    0.0000 O   0  0  0  0  0  0  0  0  0  0  0  0
    9.2608  -10.7494    0.0000 C   0  0  0  0  0  0  0  0  0  0  0  0
    8.5472  -11.1601    0.0000 C   0  0  0  0  0  0  0  0  0  0  0  0
    9.2566   -9.9238    0.0000 C   0  0  0  0  0  0  0  0  0  0  0  0
    6.4230  -10.7452    0.0000 C   0  0  0  0  0  0  0  0  0  0  0  0
    5.7094   -9.5130    0.0000 C   0  0  0  0  0  0  0  0  0  0  0  0
    5.0000  -10.7452    0.0000 C   0  0  0  0  0  0  0  0  0  0  0  0
    5.0000   -9.9238    0.0000 C   0  0  0  0  0  0  0  0  0  0  0  0
    9.9729  -11.1588    0.0000 Cl  0  0  0  0  0  0  0  0  0  0  0  0
    7.8420   -8.2869    0.0000 C   0  0  0  0  0  0  0  0  0  0  0  0
    7.8424   -7.4662    0.0000 N   0  0  0  0  0  0  0  0  0  0  0  0
    7.1304   -7.0546    0.0000 C   0  0  0  0  0  0  0  0  0  0  0  0
    6.4167   -7.4698    0.0000 N   0  0  0  0  0  0  0  0  0  0  0  0
    6.4198   -8.2891    0.0000 C   0  0  0  0  0  0  0  0  0  0  0  0
    7.1293   -6.2332    0.0000 O   0  0  0  0  0  0  0  0  0  0  0  0
    7.8402   -5.8215    0.0000 C   0  0  0  0  0  0  0  0  0  0  0  0
    7.8391   -5.0000    0.0000 C   0  0  0  0  0  0  0  0  0  0  0  0
    8.5521   -6.2313    0.0000 C   0  0  0  0  0  0  0  0  0  0  0  0
  2 17  2  0  0  0  0
  3  1  1  0  0  0  0
 17 18  1  0  0  0  0
  4  1  1  0  0  0  0
 18 19  2  0  0  0  0
  5 12  2  0  0  0  0
 19 20  1  0  0  0  0
  6  4  2  0  0  0  0
 20 21  2  0  0  0  0
 21  2  1  0  0  0  0
  7  4  1  0  0  0  0
  8  1  1  0  0  0  0
  9 11  1  0  0  0  0
 10  6  1  0  0  0  0
 11  7  2  0  0  0  0
 12  3  1  0  0  0  0
 13  3  2  0  0  0  0
  9 16  1  0  0  0  0
 14 15  2  0  0  0  0
 15 13  1  0  0  0  0
 19 22  1  0  0  0  0
  9 10  2  0  0  0  0
 22 23  1  0  0  0  0
  5 14  1  0  0  0  0
 23 24  1  0  0  0  0
  2  1  1  0  0  0  0
 23 25  1  0  0  0  0
M  END
> <Molecule Name>
DNDI1343535

> <CDD Number>
CDD-1535307

> <IC50_uM>
0.06 (n=1)

$$$$

SketchEl molfile

 25 27  0  0  0  0  0  0  0  0999 V2000
    7.1352   -8.7077    0.0000 C   0  0  0  0  0  0  0  0  0  0  0  0
    7.1352   -7.8836    0.0000 N   0  0  0  0  0  0  0  0  0  0  0  0
    6.4235   -9.1198    0.0000 C   0  0  0  0  0  0  0  0  0  0  0  0
    7.8511   -9.1198    0.0000 C   0  0  0  0  0  0  0  0  0  0  0  0
    5.7159  -10.3518    0.0000 N   0  0  0  0  0  0  0  0  0  0  0  0
    7.8470   -9.9439    0.0000 C   0  0  0  0  0  0  0  0  0  0  0  0
    8.5338   -8.6744    0.0000 C   0  0  0  0  0  0  0  0  0  0  0  0
    9.2746   -9.9439    0.0000 C   0  0  0  0  0  0  0  0  0  0  0  0
    8.5587  -10.3560    0.0000 C   0  0  0  0  0  0  0  0  0  0  0  0
    9.2705   -9.1156    0.0000 C   0  0  0  0  0  0  0  0  0  0  0  0
    6.4277   -9.9398    0.0000 C   0  0  0  0  0  0  0  0  0  0  0  0
    5.7117   -8.7036    0.0000 C   0  0  0  0  0  0  0  0  0  0  0  0
    5.0000   -9.9398    0.0000 C   0  0  0  0  0  0  0  0  0  0  0  0
    5.0000   -9.1156    0.0000 C   0  0  0  0  0  0  0  0  0  0  0  0
    9.9891  -10.3547    0.0000 Cl  0  0  0  0  0  0  0  0  0  0  0  0
    7.8513   -7.4734    0.0000 C   0  0  0  0  0  0  0  0  0  0  0  0
    7.8516   -6.6501    0.0000 C   0  0  0  0  0  0  0  0  0  0  0  0
    7.1374   -6.2372    0.0000 N   0  0  0  0  0  0  0  0  0  0  0  0
    6.4213   -6.6537    0.0000 C   0  0  0  0  0  0  0  0  0  0  0  0
    6.4245   -7.4757    0.0000 C   0  0  0  0  0  0  0  0  0  0  0  0
    7.1363   -5.4130    0.0000 S   0  0  0  0  0  0  0  0  0  0  0  0
    7.8494   -5.0000    0.0000 O   0  0  0  0  0  0  0  0  0  0  0  0
    8.5179   -7.8505    0.0000 F   0  0  0  0  0  0  0  0  0  0  0  0
    6.4220   -5.0019    0.0000 C   0  0  0  0  0  0  0  0  0  0  0  0
    7.9326   -5.6253    0.0000 O   0  0  0  0  0  0  0  0  0  0  0  0
 16 17  1  0  0  0  0
  4  1  1  0  0  0  0
 17 18  1  0  0  0  0
  5 11  2  0  0  0  0
 18 19  1  0  0  0  0
  6  4  2  0  0  0  0
 19 20  1  0  0  0  0
 20  2  1  0  0  0  0
  7  4  1  0  0  0  0
  8 10  1  0  0  0  0
  9  6  1  0  0  0  0
 10  7  2  0  0  0  0
 11  3  1  0  0  0  0
 12  3  2  0  0  0  0
  8 15  1  0  0  0  0
 13 14  2  0  0  0  0
 14 12  1  0  0  0  0
 18 21  1  0  0  0  0
  8  9  2  0  0  0  0
 21 22  2  0  0  0  0
  5 13  1  0  0  0  0
  2  1  1  0  0  0  0
  7 23  1  0  0  0  0
  2 16  1  0  0  0  0
 21 24  1  0  0  0  0
  3  1  1  0  0  0  0
 21 25  2  0  0  0  0
M  END
> <Molecule Name>
DNDI1343536

> <CDD Number>
CDD-1535308

> <IC50_uM>
0.0401248052954778 ร/รท 1.21318310460804 (n=2)

$$$$

SketchEl molfile

 27 30  0  0  0  0  0  0  0  0999 V2000
    7.1357   -9.9405    0.0000 C   0  0  0  0  0  0  0  0  0  0  0  0
    7.1357   -9.1162    0.0000 N   0  0  0  0  0  0  0  0  0  0  0  0
    6.4238  -10.3526    0.0000 C   0  0  0  0  0  0  0  0  0  0  0  0
    7.8518  -10.3526    0.0000 C   0  0  0  0  0  0  0  0  0  0  0  0
    5.7161  -11.5849    0.0000 N   0  0  0  0  0  0  0  0  0  0  0  0
    7.8476  -11.1769    0.0000 C   0  0  0  0  0  0  0  0  0  0  0  0
    8.5346   -9.9072    0.0000 C   0  0  0  0  0  0  0  0  0  0  0  0
    9.2756  -11.1769    0.0000 C   0  0  0  0  0  0  0  0  0  0  0  0
    8.5595  -11.5891    0.0000 C   0  0  0  0  0  0  0  0  0  0  0  0
    9.2715  -10.3485    0.0000 C   0  0  0  0  0  0  0  0  0  0  0  0
    6.4280  -11.1728    0.0000 C   0  0  0  0  0  0  0  0  0  0  0  0
    5.7119   -9.9363    0.0000 C   0  0  0  0  0  0  0  0  0  0  0  0
    5.0000  -11.1728    0.0000 C   0  0  0  0  0  0  0  0  0  0  0  0
    5.0000  -10.3485    0.0000 C   0  0  0  0  0  0  0  0  0  0  0  0
    9.9903  -11.5878    0.0000 Cl  0  0  0  0  0  0  0  0  0  0  0  0
    7.8519   -8.7059    0.0000 C   0  0  0  0  0  0  0  0  0  0  0  0
    7.8523   -7.8823    0.0000 C   0  0  0  0  0  0  0  0  0  0  0  0
    7.1379   -7.4693    0.0000 N   0  0  0  0  0  0  0  0  0  0  0  0
    6.4216   -7.8859    0.0000 C   0  0  0  0  0  0  0  0  0  0  0  0
    6.4248   -8.7081    0.0000 C   0  0  0  0  0  0  0  0  0  0  0  0
    8.5187   -9.0830    0.0000 F   0  0  0  0  0  0  0  0  0  0  0  0
    7.1368   -6.6450    0.0000 C   0  0  0  0  0  0  0  0  0  0  0  0
    7.8514   -6.2356    0.0000 C   0  0  0  0  0  0  0  0  0  0  0  0
    7.8506   -5.4120    0.0000 C   0  0  0  0  0  0  0  0  0  0  0  0
    7.1357   -5.0000    0.0000 C   0  0  0  0  0  0  0  0  0  0  0  0
    6.4200   -5.4175    0.0000 C   0  0  0  0  0  0  0  0  0  0  0  0
    6.4242   -6.2397    0.0000 C   0  0  0  0  0  0  0  0  0  0  0  0
  6  4  2  0  0  0  0
 19 20  1  0  0  0  0
 20  2  1  0  0  0  0
  7  4  1  0  0  0  0
  8 10  1  0  0  0  0
  9  6  1  0  0  0  0
 10  7  2  0  0  0  0
 11  3  1  0  0  0  0
 12  3  2  0  0  0  0
  8 15  1  0  0  0  0
 13 14  2  0  0  0  0
 14 12  1  0  0  0  0
  8  9  2  0  0  0  0
  5 13  1  0  0  0  0
  2  1  1  0  0  0  0
  7 21  1  0  0  0  0
  2 16  1  0  0  0  0
  3  1  1  0  0  0  0
 18 22  1  0  0  0  0
 16 17  1  0  0  0  0
 22 23  2  0  0  0  0
  4  1  1  0  0  0  0
 23 24  1  0  0  0  0
 17 18  1  0  0  0  0
 24 25  2  0  0  0  0
  5 11  2  0  0  0  0
 25 26  1  0  0  0  0
 18 19  1  0  0  0  0
 26 27  2  0  0  0  0
 27 22  1  0  0  0  0
M  END
> <Molecule Name>
DNDI1343537

> <CDD Number>
CDD-1535309

> <IC50_uM>
0.018 (n=1)

$$$$

SketchEl molfile

 27 29  0  0  0  0  0  0  0  0999 V2000
    7.8233   -7.4629    0.0000 C   0  0  0  0  0  0  0  0  0  0  0  0
    7.8233   -6.6414    0.0000 C   0  0  0  0  0  0  0  0  0  0  0  0
    8.5370   -7.8737    0.0000 C   0  0  0  0  0  0  0  0  0  0  0  0
    8.5328   -8.6953    0.0000 C   0  0  0  0  0  0  0  0  0  0  0  0
    9.2175   -7.4298    0.0000 C   0  0  0  0  0  0  0  0  0  0  0  0
    8.5868   -6.9982    0.0000 O   0  0  0  0  0  0  0  0  0  0  0  0
    9.9561   -8.6953    0.0000 C   0  0  0  0  0  0  0  0  0  0  0  0
    9.2424   -9.1061    0.0000 C   0  0  0  0  0  0  0  0  0  0  0  0
    9.9520   -7.8696    0.0000 C   0  0  0  0  0  0  0  0  0  0  0  0
   10.6657   -9.1061    0.0000 C   0  0  0  0  0  0  0  0  0  0  0  0
    8.5371   -6.2324    0.0000 C   0  0  0  0  0  0  0  0  0  0  0  0
    8.5375   -5.4116    0.0000 N   0  0  0  0  0  0  0  0  0  0  0  0
    7.8254   -5.0000    0.0000 C   0  0  0  0  0  0  0  0  0  0  0  0
    7.1115   -5.4152    0.0000 N   0  0  0  0  0  0  0  0  0  0  0  0
    7.1147   -6.2347    0.0000 C   0  0  0  0  0  0  0  0  0  0  0  0
    7.1165   -7.8819    0.0000 C   0  0  0  0  0  0  0  0  0  0  0  0
    6.4035   -7.4794    0.0000 C   0  0  0  0  0  0  0  0  0  0  0  0
    5.6973   -7.8976    0.0000 C   0  0  0  0  0  0  0  0  0  0  0  0
    5.7062   -8.7200    0.0000 C   0  0  0  0  0  0  0  0  0  0  0  0
    6.4274   -9.1224    0.0000 C   0  0  0  0  0  0  0  0  0  0  0  0
    7.1307   -8.7019    0.0000 C   0  0  0  0  0  0  0  0  0  0  0  0
   10.6647   -9.9277    0.0000 C   0  0  0  0  0  0  0  0  0  0  0  0
   11.3777   -8.6962    0.0000 C   0  0  0  0  0  0  0  0  0  0  0  0
    5.0000   -9.1399    0.0000 C   0  0  0  0  0  0  0  0  0  0  0  0
    4.2833   -8.7382    0.0000 F   0  0  0  0  0  0  0  0  0  0  0  0
    5.0105   -9.9614    0.0000 F   0  0  0  0  0  0  0  0  0  0  0  0
    4.7772   -8.3491    0.0000 F   0  0  0  0  0  0  0  0  0  0  0  0
 19 24  1  0  0  0  0
 24 25  1  0  0  0  0
 24 26  1  0  0  0  0
 24 27  1  0  0  0  0
  5  3  1  0  0  0  0
 16 17  2  0  0  0  0
 13 14  1  0  0  0  0
 17 18  1  0  0  0  0
  6  1  1  0  0  0  0
 18 19  2  0  0  0  0
 14 15  2  0  0  0  0
 19 20  1  0  0  0  0
 15  2  1  0  0  0  0
 20 21  2  0  0  0  0
 21 16  1  0  0  0  0
  7  9  1  0  0  0  0
  8  4  1  0  0  0  0
  9  5  2  0  0  0  0
 10  7  1  0  0  0  0
 10 22  1  0  0  0  0
  7  8  2  0  0  0  0
 10 23  1  0  0  0  0
  2  1  1  0  0  0  0
  3  1  1  0  0  0  0
  2 11  2  0  0  0  0
 11 12  1  0  0  0  0
  4  3  2  0  0  0  0
 12 13  2  0  0  0  0
  1 16  1  0  0  0  0
M  END
> <Molecule Name>
DNDI1343538

> <CDD Number>
CDD-1535310

> <IC50_uM>
0.0045 (n=1)

$$$$

SketchEl molfile

 25 27  0  0  0  0  0  0  0  0999 V2000
    7.8251   -7.4646    0.0000 C   0  0  0  0  0  0  0  0  0  0  0  0
    7.8251   -6.6424    0.0000 C   0  0  0  0  0  0  0  0  0  0  0  0
    8.5393   -7.8756    0.0000 C   0  0  0  0  0  0  0  0  0  0  0  0
    8.5352   -8.6978    0.0000 C   0  0  0  0  0  0  0  0  0  0  0  0
    9.2203   -7.4313    0.0000 C   0  0  0  0  0  0  0  0  0  0  0  0
    8.5891   -6.9995    0.0000 O   0  0  0  0  0  0  0  0  0  0  0  0
    9.9594   -8.6978    0.0000 C   0  0  0  0  0  0  0  0  0  0  0  0
    9.2452   -9.1088    0.0000 C   0  0  0  0  0  0  0  0  0  0  0  0
    9.9552   -7.8715    0.0000 C   0  0  0  0  0  0  0  0  0  0  0  0
    8.5394   -6.2332    0.0000 C   0  0  0  0  0  0  0  0  0  0  0  0
    8.5398   -5.4119    0.0000 N   0  0  0  0  0  0  0  0  0  0  0  0
    7.8273   -5.0000    0.0000 C   0  0  0  0  0  0  0  0  0  0  0  0
    7.1129   -5.4155    0.0000 C   0  0  0  0  0  0  0  0  0  0  0  0
    7.1161   -6.2355    0.0000 C   0  0  0  0  0  0  0  0  0  0  0  0
    7.1179   -7.8837    0.0000 C   0  0  0  0  0  0  0  0  0  0  0  0
    6.4045   -7.4810    0.0000 C   0  0  0  0  0  0  0  0  0  0  0  0
    5.6977   -7.8995    0.0000 C   0  0  0  0  0  0  0  0  0  0  0  0
    5.7067   -8.7225    0.0000 C   0  0  0  0  0  0  0  0  0  0  0  0
    6.4283   -9.1252    0.0000 C   0  0  0  0  0  0  0  0  0  0  0  0
    5.0000   -9.1426    0.0000 Cl  0  0  0  0  0  0  0  0  0  0  0  0
    7.8219   -9.1066    0.0000 O   0  0  0  0  0  0  0  0  0  0  0  0
    7.1112   -8.6933    0.0000 C   0  0  0  0  0  0  0  0  0  0  0  0
    7.8193   -9.9287    0.0000 C   0  0  0  0  0  0  0  0  0  0  0  0
    7.1061  -10.3376    0.0000 C   0  0  0  0  0  0  0  0  0  0  0  0
    8.5300  -10.3420    0.0000 C   0  0  0  0  0  0  0  0  0  0  0  0
 17 18  2  0  0  0  0
 13 14  2  0  0  0  0
 18 19  1  0  0  0  0
 14  2  1  0  0  0  0
 19 22  2  0  0  0  0
 22 15  1  0  0  0  0
  7  9  1  0  0  0  0
  8  4  1  0  0  0  0
  9  5  2  0  0  0  0
  7  8  2  0  0  0  0
  2  1  1  0  0  0  0
  3  1  1  0  0  0  0
  2 10  2  0  0  0  0
 10 11  1  0  0  0  0
  4  3  2  0  0  0  0
 11 12  2  0  0  0  0
  1 15  1  0  0  0  0
 18 20  1  0  0  0  0
  5  3  1  0  0  0  0
  4 21  1  0  0  0  0
 15 16  2  0  0  0  0
 12 13  1  0  0  0  0
 21 23  1  0  0  0  0
 16 17  1  0  0  0  0
 23 24  1  0  0  0  0
  6  1  1  0  0  0  0
 23 25  1  0  0  0  0
M  END
> <Molecule Name>
DNDI1388139

> <CDD Number>
CDD-1535311

> <IC50_uM>
0.446 (n=1)

$$$$

SketchEl molfile

 25 27  0  0  0  0  0  0  0  0999 V2000
    7.8251   -7.4646    0.0000 C   0  0  0  0  0  0  0  0  0  0  0  0
    7.8251   -6.6425    0.0000 C   0  0  0  0  0  0  0  0  0  0  0  0
    8.5393   -7.8757    0.0000 C   0  0  0  0  0  0  0  0  0  0  0  0
    8.5352   -8.6978    0.0000 C   0  0  0  0  0  0  0  0  0  0  0  0
    9.2203   -7.4314    0.0000 C   0  0  0  0  0  0  0  0  0  0  0  0
    8.5891   -6.9996    0.0000 O   0  0  0  0  0  0  0  0  0  0  0  0
    9.9594   -8.6978    0.0000 C   0  0  0  0  0  0  0  0  0  0  0  0
    9.2452   -9.1089    0.0000 C   0  0  0  0  0  0  0  0  0  0  0  0
    9.9552   -7.8715    0.0000 C   0  0  0  0  0  0  0  0  0  0  0  0
    8.5394   -6.2333    0.0000 C   0  0  0  0  0  0  0  0  0  0  0  0
    8.5398   -5.4119    0.0000 N   0  0  0  0  0  0  0  0  0  0  0  0
    7.8273   -5.0000    0.0000 C   0  0  0  0  0  0  0  0  0  0  0  0
    7.1129   -5.4155    0.0000 C   0  0  0  0  0  0  0  0  0  0  0  0
    7.1161   -6.2355    0.0000 C   0  0  0  0  0  0  0  0  0  0  0  0
    7.1179   -7.8838    0.0000 C   0  0  0  0  0  0  0  0  0  0  0  0
    6.4045   -7.4811    0.0000 C   0  0  0  0  0  0  0  0  0  0  0  0
    5.6977   -7.8996    0.0000 C   0  0  0  0  0  0  0  0  0  0  0  0
    5.7067   -8.7225    0.0000 C   0  0  0  0  0  0  0  0  0  0  0  0
    6.4283   -9.1252    0.0000 C   0  0  0  0  0  0  0  0  0  0  0  0
    7.8219   -9.1066    0.0000 F   0  0  0  0  0  0  0  0  0  0  0  0
    7.1112   -8.6934    0.0000 C   0  0  0  0  0  0  0  0  0  0  0  0
    5.0000   -9.1426    0.0000 C   0  0  0  0  0  0  0  0  0  0  0  0
    4.2828   -8.7407    0.0000 F   0  0  0  0  0  0  0  0  0  0  0  0
    5.0105   -9.9647    0.0000 F   0  0  0  0  0  0  0  0  0  0  0  0
    4.7771   -8.3513    0.0000 F   0  0  0  0  0  0  0  0  0  0  0  0
 18 22  1  0  0  0  0
 22 23  1  0  0  0  0
 22 24  1  0  0  0  0
 22 25  1  0  0  0  0
  7  9  1  0  0  0  0
  8  4  1  0  0  0  0
  9  5  2  0  0  0  0
  7  8  2  0  0  0  0
  2  1  1  0  0  0  0
  3  1  1  0  0  0  0
  2 10  2  0  0  0  0
 10 11  1  0  0  0  0
  4  3  2  0  0  0  0
 11 12  2  0  0  0  0
  1 15  1  0  0  0  0
  5  3  1  0  0  0  0
  4 20  1  0  0  0  0
 15 16  2  0  0  0  0
 12 13  1  0  0  0  0
 16 17  1  0  0  0  0
  6  1  1  0  0  0  0
 17 18  2  0  0  0  0
 13 14  2  0  0  0  0
 18 19  1  0  0  0  0
 14  2  1  0  0  0  0
 19 21  2  0  0  0  0
 21 15  1  0  0  0  0
M  END
> <Molecule Name>
DNDI1388140

> <CDD Number>
CDD-1535312

> <IC50_uM>
0.022 (n=1)

$$$$

SketchEl molfile

 25 27  0  0  0  0  0  0  0  0999 V2000
    9.2490   -7.4646    0.0000 C   0  0  0  0  0  0  0  0  0  0  0  0
    9.9632   -7.8757    0.0000 C   0  0  0  0  0  0  0  0  0  0  0  0
    9.2490   -6.6425    0.0000 C   0  0  0  0  0  0  0  0  0  0  0  0
    8.5418   -7.8838    0.0000 C   0  0  0  0  0  0  0  0  0  0  0  0
    9.9590   -8.6978    0.0000 C   0  0  0  0  0  0  0  0  0  0  0  0
    9.9636   -5.4119    0.0000 N   0  0  0  0  0  0  0  0  0  0  0  0
    6.4239   -9.1426    0.0000 O   0  0  0  0  0  0  0  0  0  0  0  0
   10.0130   -6.9996    0.0000 O   0  0  0  0  0  0  0  0  0  0  0  0
    8.5351   -8.6933    0.0000 C   0  0  0  0  0  0  0  0  0  0  0  0
    7.8283   -7.4811    0.0000 C   0  0  0  0  0  0  0  0  0  0  0  0
    9.2458   -9.1066    0.0000 F   0  0  0  0  0  0  0  0  0  0  0  0
    7.1305   -8.7225    0.0000 C   0  0  0  0  0  0  0  0  0  0  0  0
    9.9633   -6.2333    0.0000 C   0  0  0  0  0  0  0  0  0  0  0  0
    7.8522   -9.1252    0.0000 C   0  0  0  0  0  0  0  0  0  0  0  0
    7.1216   -7.8996    0.0000 C   0  0  0  0  0  0  0  0  0  0  0  0
   10.6441   -7.4314    0.0000 C   0  0  0  0  0  0  0  0  0  0  0  0
    5.7067   -8.7407    0.0000 C   0  0  0  0  0  0  0  0  0  0  0  0
    9.2511   -5.0000    0.0000 C   0  0  0  0  0  0  0  0  0  0  0  0
    8.5399   -6.2355    0.0000 C   0  0  0  0  0  0  0  0  0  0  0  0
   10.6690   -9.1089    0.0000 C   0  0  0  0  0  0  0  0  0  0  0  0
    5.0000   -9.1608    0.0000 C   0  0  0  0  0  0  0  0  0  0  0  0
    5.6962   -7.9186    0.0000 C   0  0  0  0  0  0  0  0  0  0  0  0
    8.5368   -5.4155    0.0000 C   0  0  0  0  0  0  0  0  0  0  0  0
   11.3791   -7.8715    0.0000 C   0  0  0  0  0  0  0  0  0  0  0  0
   11.3832   -8.6978    0.0000 C   0  0  0  0  0  0  0  0  0  0  0  0
 25 20  2  0  0  0  0
  3  1  1  0  0  0  0
  2  1  1  0  0  0  0
  3 13  2  0  0  0  0
 13  6  1  0  0  0  0
  5  2  2  0  0  0  0
  6 18  2  0  0  0  0
  1  4  1  0  0  0  0
 16  2  1  0  0  0  0
  5 11  1  0  0  0  0
  4 10  2  0  0  0  0
 18 23  1  0  0  0  0
 10 15  1  0  0  0  0
  8  1  1  0  0  0  0
 15 12  2  0  0  0  0
 23 19  2  0  0  0  0
 12 14  1  0  0  0  0
 19  3  1  0  0  0  0
 14  9  2  0  0  0  0
  9  4  1  0  0  0  0
 12  7  1  0  0  0  0
 25 24  1  0  0  0  0
  7 17  1  0  0  0  0
 20  5  1  0  0  0  0
 17 21  1  0  0  0  0
 24 16  2  0  0  0  0
 17 22  1  0  0  0  0
M  END
> <Molecule Name>
DNDI1388141

> <CDD Number>
CDD-1535313

> <IC50_uM>
0.0033 (n=1)

$$$$

SketchEl molfile

 23 25  0  0  0  0  0  0  0  0999 V2000
    7.8244   -7.4639    0.0000 C   0  0  0  0  0  0  0  0  0  0  0  0
    8.5383   -7.8749    0.0000 C   0  0  0  0  0  0  0  0  0  0  0  0
    7.8244   -6.6420    0.0000 C   0  0  0  0  0  0  0  0  0  0  0  0
    7.1173   -7.8830    0.0000 C   0  0  0  0  0  0  0  0  0  0  0  0
    8.5342   -8.6968    0.0000 C   0  0  0  0  0  0  0  0  0  0  0  0
    8.5388   -5.4118    0.0000 N   0  0  0  0  0  0  0  0  0  0  0  0
    5.0000   -9.1415    0.0000 Cl  0  0  0  0  0  0  0  0  0  0  0  0
    8.5881   -6.9990    0.0000 O   0  0  0  0  0  0  0  0  0  0  0  0
    7.1106   -8.6923    0.0000 C   0  0  0  0  0  0  0  0  0  0  0  0
    6.4041   -7.4804    0.0000 C   0  0  0  0  0  0  0  0  0  0  0  0
    7.8211   -9.1055    0.0000 F   0  0  0  0  0  0  0  0  0  0  0  0
    5.7065   -8.7215    0.0000 C   0  0  0  0  0  0  0  0  0  0  0  0
    8.5385   -6.2329    0.0000 C   0  0  0  0  0  0  0  0  0  0  0  0
    6.4279   -9.1241    0.0000 C   0  0  0  0  0  0  0  0  0  0  0  0
    5.6975   -7.8988    0.0000 C   0  0  0  0  0  0  0  0  0  0  0  0
    9.2191   -7.4307    0.0000 C   0  0  0  0  0  0  0  0  0  0  0  0
    7.8265   -5.0000    0.0000 C   0  0  0  0  0  0  0  0  0  0  0  0
    7.1155   -6.2352    0.0000 C   0  0  0  0  0  0  0  0  0  0  0  0
    9.2440   -9.1077    0.0000 C   0  0  0  0  0  0  0  0  0  0  0  0
    7.1123   -5.4154    0.0000 N   0  0  0  0  0  0  0  0  0  0  0  0
    9.9538   -7.8707    0.0000 C   0  0  0  0  0  0  0  0  0  0  0  0
    9.9580   -8.6968    0.0000 C   0  0  0  0  0  0  0  0  0  0  0  0
   10.6705   -9.1064    0.0000 Cl  0  0  0  0  0  0  0  0  0  0  0  0
 22 19  2  0  0  0  0
  3  1  1  0  0  0  0
  2  1  1  0  0  0  0
  3 13  2  0  0  0  0
 13  6  1  0  0  0  0
  5  2  2  0  0  0  0
  6 17  2  0  0  0  0
  1  4  1  0  0  0  0
 16  2  1  0  0  0  0
  5 11  1  0  0  0  0
  4 10  2  0  0  0  0
 17 20  1  0  0  0  0
 10 15  1  0  0  0  0
  8  1  1  0  0  0  0
 15 12  2  0  0  0  0
 20 18  2  0  0  0  0
 12 14  1  0  0  0  0
 18  3  1  0  0  0  0
 14  9  2  0  0  0  0
  9  4  1  0  0  0  0
 12  7  1  0  0  0  0
 22 21  1  0  0  0  0
 19  5  1  0  0  0  0
 21 16  2  0  0  0  0
 22 23  1  0  0  0  0
M  END
> <Molecule Name>
DNDI1388142

> <CDD Number>
CDD-1535314

> <IC50_uM>
0.052 (n=1)

$$$$

SketchEl molfile

 26 28  0  0  0  0  0  0  0  0999 V2000
    9.2495   -7.4649    0.0000 C   0  0  0  0  0  0  0  0  0  0  0  0
    9.9638   -7.8760    0.0000 C   0  0  0  0  0  0  0  0  0  0  0  0
    9.2495   -6.6427    0.0000 C   0  0  0  0  0  0  0  0  0  0  0  0
    8.5422   -7.8841    0.0000 C   0  0  0  0  0  0  0  0  0  0  0  0
    9.9596   -8.6982    0.0000 C   0  0  0  0  0  0  0  0  0  0  0  0
    9.9643   -5.4119    0.0000 N   0  0  0  0  0  0  0  0  0  0  0  0
    6.4240   -9.1431    0.0000 O   0  0  0  0  0  0  0  0  0  0  0  0
   10.0136   -6.9998    0.0000 O   0  0  0  0  0  0  0  0  0  0  0  0
    8.5355   -8.6938    0.0000 C   0  0  0  0  0  0  0  0  0  0  0  0
    7.8287   -7.4814    0.0000 C   0  0  0  0  0  0  0  0  0  0  0  0
    9.2463   -9.1071    0.0000 F   0  0  0  0  0  0  0  0  0  0  0  0
    7.1308   -8.7230    0.0000 C   0  0  0  0  0  0  0  0  0  0  0  0
    9.9639   -6.2334    0.0000 C   0  0  0  0  0  0  0  0  0  0  0  0
    7.8525   -9.1257    0.0000 C   0  0  0  0  0  0  0  0  0  0  0  0
    7.1218   -7.8999    0.0000 C   0  0  0  0  0  0  0  0  0  0  0  0
   10.6448   -7.4317    0.0000 C   0  0  0  0  0  0  0  0  0  0  0  0
    9.2517   -5.0000    0.0000 C   0  0  0  0  0  0  0  0  0  0  0  0
    8.5404   -6.2356    0.0000 C   0  0  0  0  0  0  0  0  0  0  0  0
   10.6697   -9.1093    0.0000 C   0  0  0  0  0  0  0  0  0  0  0  0
    8.5372   -5.4155    0.0000 C   0  0  0  0  0  0  0  0  0  0  0  0
   11.3798   -7.8718    0.0000 C   0  0  0  0  0  0  0  0  0  0  0  0
   11.3840   -8.6982    0.0000 C   0  0  0  0  0  0  0  0  0  0  0  0
   12.0968   -9.1080    0.0000 C   0  0  0  0  0  0  0  0  0  0  0  0
    5.7068   -8.7411    0.0000 C   0  0  0  0  0  0  0  0  0  0  0  0
    5.0000   -9.1613    0.0000 C   0  0  0  0  0  0  0  0  0  0  0  0
    5.6963   -7.9190    0.0000 C   0  0  0  0  0  0  0  0  0  0  0  0
  2  1  1  0  0  0  0
  3 13  2  0  0  0  0
 13  6  1  0  0  0  0
  5  2  2  0  0  0  0
  6 17  2  0  0  0  0
  1  4  1  0  0  0  0
 16  2  1  0  0  0  0
  5 11  1  0  0  0  0
  4 10  2  0  0  0  0
 17 20  1  0  0  0  0
 10 15  1  0  0  0  0
  8  1  1  0  0  0  0
 15 12  2  0  0  0  0
 20 18  2  0  0  0  0
 12 14  1  0  0  0  0
 18  3  1  0  0  0  0
 14  9  2  0  0  0  0
  9  4  1  0  0  0  0
 12  7  1  0  0  0  0
 22 21  1  0  0  0  0
 19  5  1  0  0  0  0
 21 16  2  0  0  0  0
 22 23  1  0  0  0  0
  7 24  1  0  0  0  0
 22 19  2  0  0  0  0
 24 25  1  0  0  0  0
  3  1  1  0  0  0  0
 24 26  1  0  0  0  0
M  END
> <Molecule Name>
DNDI1388143

> <CDD Number>
CDD-1535315

> <IC50_uM>
0.0032 (n=1)

$$$$

SketchEl molfile

 20 22  0  0  0  0  0  0  0  0999 V2000
    6.9995   -7.4590    0.0000 C   0  0  0  0  0  0  0  0  0  0  0  0
    7.7120   -7.8691    0.0000 C   0  0  0  0  0  0  0  0  0  0  0  0
    6.9995   -6.6387    0.0000 C   0  0  0  0  0  0  0  0  0  0  0  0
    6.2938   -7.8772    0.0000 C   0  0  0  0  0  0  0  0  0  0  0  0
    7.7079   -8.6894    0.0000 C   0  0  0  0  0  0  0  0  0  0  0  0
    7.7125   -5.4110    0.0000 N   0  0  0  0  0  0  0  0  0  0  0  0
    7.7617   -6.9950    0.0000 O   0  0  0  0  0  0  0  0  0  0  0  0
    7.7121   -6.2305    0.0000 C   0  0  0  0  0  0  0  0  0  0  0  0
    8.3914   -7.4259    0.0000 C   0  0  0  0  0  0  0  0  0  0  0  0
    7.0016   -5.0000    0.0000 C   0  0  0  0  0  0  0  0  0  0  0  0
    6.2920   -6.2327    0.0000 C   0  0  0  0  0  0  0  0  0  0  0  0
    8.4163   -9.0995    0.0000 C   0  0  0  0  0  0  0  0  0  0  0  0
    6.2889   -5.4146    0.0000 N   0  0  0  0  0  0  0  0  0  0  0  0
    9.1246   -7.8650    0.0000 C   0  0  0  0  0  0  0  0  0  0  0  0
    9.1288   -8.6894    0.0000 C   0  0  0  0  0  0  0  0  0  0  0  0
    9.8399   -9.0982    0.0000 Cl  0  0  0  0  0  0  0  0  0  0  0  0
    5.5419   -7.5574    0.0000 C   0  0  0  0  0  0  0  0  0  0  0  0
    5.0000   -8.1732    0.0000 S   0  0  0  0  0  0  0  0  0  0  0  0
    5.4183   -8.8789    0.0000 C   0  0  0  0  0  0  0  0  0  0  0  0
    6.2185   -8.6991    0.0000 N   0  0  0  0  0  0  0  0  0  0  0  0
  5  2  2  0  0  0  0
  6 10  2  0  0  0  0
  1  4  1  0  0  0  0
  9  2  1  0  0  0  0
 10 13  1  0  0  0  0
  7  1  1  0  0  0  0
 13 11  2  0  0  0  0
 11  3  1  0  0  0  0
 15 14  1  0  0  0  0
 12  5  1  0  0  0  0
 14  9  2  0  0  0  0
 15 16  1  0  0  0  0
 15 12  2  0  0  0  0
  3  1  1  0  0  0  0
  4 17  2  0  0  0  0
  2  1  1  0  0  0  0
  3  8  2  0  0  0  0
  8  6  1  0  0  0  0
 17 18  1  0  0  0  0
 18 19  1  0  0  0  0
 19 20  2  0  0  0  0
 20  4  1  0  0  0  0
M  END
> <Molecule Name>
DNDI1388144

> <CDD Number>
CDD-1535316

> <IC50_uM>
0.251 (n=1)

$$$$

SketchEl molfile

 20 22  0  0  0  0  0  0  0  0999 V2000
    6.9995   -7.4590    0.0000 C   0  0  0  0  0  0  0  0  0  0  0  0
    7.7120   -7.8691    0.0000 C   0  0  0  0  0  0  0  0  0  0  0  0
    6.9995   -6.6387    0.0000 C   0  0  0  0  0  0  0  0  0  0  0  0
    6.2938   -7.8772    0.0000 C   0  0  0  0  0  0  0  0  0  0  0  0
    7.7079   -8.6894    0.0000 C   0  0  0  0  0  0  0  0  0  0  0  0
    7.7125   -5.4110    0.0000 N   0  0  0  0  0  0  0  0  0  0  0  0
    7.7617   -6.9950    0.0000 O   0  0  0  0  0  0  0  0  0  0  0  0
    7.7121   -6.2305    0.0000 C   0  0  0  0  0  0  0  0  0  0  0  0
    8.3914   -7.4259    0.0000 C   0  0  0  0  0  0  0  0  0  0  0  0
    7.0016   -5.0000    0.0000 C   0  0  0  0  0  0  0  0  0  0  0  0
    6.2920   -6.2327    0.0000 C   0  0  0  0  0  0  0  0  0  0  0  0
    8.4163   -9.0995    0.0000 C   0  0  0  0  0  0  0  0  0  0  0  0
    6.2889   -5.4146    0.0000 C   0  0  0  0  0  0  0  0  0  0  0  0
    9.1246   -7.8650    0.0000 C   0  0  0  0  0  0  0  0  0  0  0  0
    9.1288   -8.6894    0.0000 C   0  0  0  0  0  0  0  0  0  0  0  0
    9.8399   -9.0982    0.0000 Cl  0  0  0  0  0  0  0  0  0  0  0  0
    5.5419   -7.5574    0.0000 C   0  0  0  0  0  0  0  0  0  0  0  0
    5.0000   -8.1732    0.0000 N   0  0  0  0  0  0  0  0  0  0  0  0
    5.4183   -8.8789    0.0000 C   0  0  0  0  0  0  0  0  0  0  0  0
    6.2185   -8.6991    0.0000 S   0  0  0  0  0  0  0  0  0  0  0  0
  5  2  2  0  0  0  0
  6 10  2  0  0  0  0
  1  4  1  0  0  0  0
  9  2  1  0  0  0  0
 10 13  1  0  0  0  0
  7  1  1  0  0  0  0
 13 11  2  0  0  0  0
 11  3  1  0  0  0  0
 15 14  1  0  0  0  0
 12  5  1  0  0  0  0
 14  9  2  0  0  0  0
 15 16  1  0  0  0  0
 15 12  2  0  0  0  0
  3  1  1  0  0  0  0
  4 17  2  0  0  0  0
  2  1  1  0  0  0  0
  3  8  2  0  0  0  0
  8  6  1  0  0  0  0
 17 18  1  0  0  0  0
 18 19  2  0  0  0  0
 19 20  1  0  0  0  0
 20  4  1  0  0  0  0
M  END
> <Molecule Name>
DNDI1388145

> <CDD Number>
CDD-1535317

> <IC50_uM>
0.14 (n=1)

$$$$

SketchEl molfile

 23 25  0  0  0  0  0  0  0  0999 V2000
    7.1245   -8.6935    0.0000 C   0  0  0  0  0  0  0  0  0  0  0  0
    7.8376   -9.1040    0.0000 C   0  0  0  0  0  0  0  0  0  0  0  0
    7.1245   -7.8726    0.0000 C   0  0  0  0  0  0  0  0  0  0  0  0
    6.4182   -9.1121    0.0000 C   0  0  0  0  0  0  0  0  0  0  0  0
    7.8335   -9.9250    0.0000 C   0  0  0  0  0  0  0  0  0  0  0  0
    7.8381   -6.6437    0.0000 N   0  0  0  0  0  0  0  0  0  0  0  0
    7.8874   -8.2291    0.0000 O   0  0  0  0  0  0  0  0  0  0  0  0
    7.8378   -7.4639    0.0000 C   0  0  0  0  0  0  0  0  0  0  0  0
    8.5176   -8.6604    0.0000 C   0  0  0  0  0  0  0  0  0  0  0  0
    7.1266   -6.2324    0.0000 C   0  0  0  0  0  0  0  0  0  0  0  0
    6.4164   -7.4662    0.0000 C   0  0  0  0  0  0  0  0  0  0  0  0
    8.5425  -10.3355    0.0000 C   0  0  0  0  0  0  0  0  0  0  0  0
    6.4132   -6.6473    0.0000 N   0  0  0  0  0  0  0  0  0  0  0  0
    9.2515   -9.0999    0.0000 C   0  0  0  0  0  0  0  0  0  0  0  0
    9.2557   -9.9250    0.0000 C   0  0  0  0  0  0  0  0  0  0  0  0
    9.9674  -10.3342    0.0000 Cl  0  0  0  0  0  0  0  0  0  0  0  0
    5.7058   -8.7100    0.0000 C   0  0  0  0  0  0  0  0  0  0  0  0
    5.0000   -9.1279    0.0000 N   0  0  0  0  0  0  0  0  0  0  0  0
    5.0090   -9.9497    0.0000 C   0  0  0  0  0  0  0  0  0  0  0  0
    5.7296  -10.3518    0.0000 C   0  0  0  0  0  0  0  0  0  0  0  0
    6.4324   -9.9316    0.0000 C   0  0  0  0  0  0  0  0  0  0  0  0
    7.1255   -5.4114    0.0000 S   0  0  0  0  0  0  0  0  0  0  0  0
    7.8359   -5.0000    0.0000 C   0  0  0  0  0  0  0  0  0  0  0  0
 13 11  2  0  0  0  0
 11  3  1  0  0  0  0
 15 14  1  0  0  0  0
 12  5  1  0  0  0  0
 14  9  2  0  0  0  0
 15 16  1  0  0  0  0
 15 12  2  0  0  0  0
  3  1  1  0  0  0  0
  2  1  1  0  0  0  0
  3  8  2  0  0  0  0
  8  6  1  0  0  0  0
  4 17  2  0  0  0  0
  5  2  2  0  0  0  0
 17 18  1  0  0  0  0
  6 10  2  0  0  0  0
 18 19  2  0  0  0  0
  1  4  1  0  0  0  0
 19 20  1  0  0  0  0
  9  2  1  0  0  0  0
 20 21  2  0  0  0  0
 21  4  1  0  0  0  0
 10 13  1  0  0  0  0
 10 22  1  0  0  0  0
  7  1  1  0  0  0  0
 22 23  1  0  0  0  0
M  END
> <Molecule Name>
DNDI1388146

> <CDD Number>
CDD-1535318

> <IC50_uM>
0.288 (n=1)

$$$$

SketchEl molfile

 22 24  0  0  0  0  0  0  0  0999 V2000
    7.8206   -7.4607    0.0000 C   0  0  0  0  0  0  0  0  0  0  0  0
    8.5336   -7.8711    0.0000 C   0  0  0  0  0  0  0  0  0  0  0  0
    7.8206   -6.6398    0.0000 C   0  0  0  0  0  0  0  0  0  0  0  0
    7.1145   -7.8792    0.0000 C   0  0  0  0  0  0  0  0  0  0  0  0
    8.5295   -8.6919    0.0000 C   0  0  0  0  0  0  0  0  0  0  0  0
    8.5341   -5.4113    0.0000 N   0  0  0  0  0  0  0  0  0  0  0  0
    8.5834   -6.9964    0.0000 O   0  0  0  0  0  0  0  0  0  0  0  0
    8.5338   -6.2313    0.0000 C   0  0  0  0  0  0  0  0  0  0  0  0
    9.2135   -7.4275    0.0000 C   0  0  0  0  0  0  0  0  0  0  0  0
    7.8227   -5.0000    0.0000 C   0  0  0  0  0  0  0  0  0  0  0  0
    7.1127   -6.2335    0.0000 C   0  0  0  0  0  0  0  0  0  0  0  0
    9.2384   -9.1023    0.0000 C   0  0  0  0  0  0  0  0  0  0  0  0
    7.1095   -5.4148    0.0000 N   0  0  0  0  0  0  0  0  0  0  0  0
    9.9473   -7.8669    0.0000 C   0  0  0  0  0  0  0  0  0  0  0  0
    9.9514   -8.6919    0.0000 C   0  0  0  0  0  0  0  0  0  0  0  0
   10.6630   -9.1010    0.0000 Cl  0  0  0  0  0  0  0  0  0  0  0  0
    6.4022   -7.4771    0.0000 N   0  0  0  0  0  0  0  0  0  0  0  0
    5.6966   -7.8949    0.0000 C   0  0  0  0  0  0  0  0  0  0  0  0
    5.7055   -8.7166    0.0000 C   0  0  0  0  0  0  0  0  0  0  0  0
    6.4260   -9.1186    0.0000 N   0  0  0  0  0  0  0  0  0  0  0  0
    7.1287   -8.6984    0.0000 C   0  0  0  0  0  0  0  0  0  0  0  0
    5.0000   -9.1360    0.0000 C   0  0  0  0  0  0  0  0  0  0  0  0
 13 11  2  0  0  0  0
 11  3  1  0  0  0  0
 15 14  1  0  0  0  0
 12  5  1  0  0  0  0
 14  9  2  0  0  0  0
 15 16  1  0  0  0  0
 15 12  2  0  0  0  0
  3  1  1  0  0  0  0
  2  1  1  0  0  0  0
  3  8  2  0  0  0  0
  8  6  1  0  0  0  0
  4 17  2  0  0  0  0
  5  2  2  0  0  0  0
 17 18  1  0  0  0  0
  6 10  2  0  0  0  0
 18 19  2  0  0  0  0
  1  4  1  0  0  0  0
 19 20  1  0  0  0  0
  9  2  1  0  0  0  0
 20 21  2  0  0  0  0
 21  4  1  0  0  0  0
 10 13  1  0  0  0  0
  7  1  1  0  0  0  0
 19 22  1  0  0  0  0
M  END
> <Molecule Name>
DNDI1388147

> <CDD Number>
CDD-1535319

> <IC50_uM>
2.11 (n=1)

$$$$

SketchEl molfile

 26 28  0  0  0  0  0  0  0  0999 V2000
    7.1322   -9.5311    0.0000 C   0  0  0  0  0  0  0  0  0  0  0  0
    7.8480   -9.9431    0.0000 C   0  0  0  0  0  0  0  0  0  0  0  0
    7.1322   -8.7071    0.0000 N   0  0  0  0  0  0  0  0  0  0  0  0
    6.4234   -9.9512    0.0000 C   0  0  0  0  0  0  0  0  0  0  0  0
    7.8439  -10.7670    0.0000 C   0  0  0  0  0  0  0  0  0  0  0  0
    7.8485   -7.4737    0.0000 C   0  0  0  0  0  0  0  0  0  0  0  0
    7.8481   -8.2970    0.0000 C   0  0  0  0  0  0  0  0  0  0  0  0
    8.5305   -9.4978    0.0000 C   0  0  0  0  0  0  0  0  0  0  0  0
    7.1344   -7.0609    0.0000 N   0  0  0  0  0  0  0  0  0  0  0  0
    6.4216   -8.2992    0.0000 C   0  0  0  0  0  0  0  0  0  0  0  0
    8.5555  -11.1790    0.0000 C   0  0  0  0  0  0  0  0  0  0  0  0
    6.4184   -7.4773    0.0000 C   0  0  0  0  0  0  0  0  0  0  0  0
    9.2671   -9.9389    0.0000 C   0  0  0  0  0  0  0  0  0  0  0  0
    9.2713  -10.7670    0.0000 C   0  0  0  0  0  0  0  0  0  0  0  0
    9.9856  -11.1777    0.0000 Cl  0  0  0  0  0  0  0  0  0  0  0  0
    5.7084   -9.5476    0.0000 C   0  0  0  0  0  0  0  0  0  0  0  0
    5.0000   -9.9670    0.0000 C   0  0  0  0  0  0  0  0  0  0  0  0
    5.0090  -10.7918    0.0000 C   0  0  0  0  0  0  0  0  0  0  0  0
    5.7323  -11.1954    0.0000 N   0  0  0  0  0  0  0  0  0  0  0  0
    6.4376  -10.7736    0.0000 C   0  0  0  0  0  0  0  0  0  0  0  0
    8.5146   -8.6739    0.0000 F   0  0  0  0  0  0  0  0  0  0  0  0
    7.1333   -6.2369    0.0000 C   0  0  0  0  0  0  0  0  0  0  0  0
    7.8463   -5.8240    0.0000 C   0  0  0  0  0  0  0  0  0  0  0  0
    6.4191   -5.8259    0.0000 O   0  0  0  0  0  0  0  0  0  0  0  0
    8.5604   -6.2350    0.0000 C   0  0  0  0  0  0  0  0  0  0  0  0
    7.8452   -5.0000    0.0000 C   0  0  0  0  0  0  0  0  0  0  0  0
 11  5  1  0  0  0  0
 13  8  2  0  0  0  0
 14 15  1  0  0  0  0
 14 11  2  0  0  0  0
  3  1  1  0  0  0  0
  2  1  1  0  0  0  0
  3  7  1  0  0  0  0
  7  6  1  0  0  0  0
  4 16  2  0  0  0  0
  5  2  2  0  0  0  0
 16 17  1  0  0  0  0
  6  9  1  0  0  0  0
 17 18  2  0  0  0  0
  1  4  1  0  0  0  0
 18 19  1  0  0  0  0
  8  2  1  0  0  0  0
 19 20  2  0  0  0  0
 20  4  1  0  0  0  0
  9 12  1  0  0  0  0
  8 21  1  0  0  0  0
 12 10  1  0  0  0  0
  9 22  1  0  0  0  0
 10  3  1  0  0  0  0
 22 23  1  0  0  0  0
 14 13  1  0  0  0  0
 22 24  2  0  0  0  0
 23 25  1  0  0  0  0
 23 26  1  0  0  0  0
M  END
> <Molecule Name>
DNDI1388148

> <CDD Number>
CDD-1535320

> <IC50_uM>
0.062 (n=1)

$$$$

SketchEl molfile

 29 32  0  0  0  0  0  0  0  0999 V2000
    7.1328   -9.9402    0.0000 C   0  0  0  0  0  0  0  0  0  0  0  0
    7.8488  -10.3523    0.0000 C   0  0  0  0  0  0  0  0  0  0  0  0
    7.1328   -9.1160    0.0000 N   0  0  0  0  0  0  0  0  0  0  0  0
    6.4238  -10.3605    0.0000 C   0  0  0  0  0  0  0  0  0  0  0  0
    7.8446  -11.1765    0.0000 C   0  0  0  0  0  0  0  0  0  0  0  0
    7.8492   -7.8824    0.0000 C   0  0  0  0  0  0  0  0  0  0  0  0
    7.8489   -8.7058    0.0000 C   0  0  0  0  0  0  0  0  0  0  0  0
    8.5314   -9.9069    0.0000 C   0  0  0  0  0  0  0  0  0  0  0  0
    7.1349   -7.4695    0.0000 N   0  0  0  0  0  0  0  0  0  0  0  0
    6.4219   -8.7080    0.0000 C   0  0  0  0  0  0  0  0  0  0  0  0
    8.5564  -11.5886    0.0000 C   0  0  0  0  0  0  0  0  0  0  0  0
    6.4188   -7.8860    0.0000 C   0  0  0  0  0  0  0  0  0  0  0  0
    9.2682  -10.3482    0.0000 C   0  0  0  0  0  0  0  0  0  0  0  0
    9.2724  -11.1765    0.0000 C   0  0  0  0  0  0  0  0  0  0  0  0
    9.9869  -11.5873    0.0000 Cl  0  0  0  0  0  0  0  0  0  0  0  0
    5.7085   -9.9567    0.0000 C   0  0  0  0  0  0  0  0  0  0  0  0
    5.0000  -10.3763    0.0000 C   0  0  0  0  0  0  0  0  0  0  0  0
    5.0090  -11.2013    0.0000 C   0  0  0  0  0  0  0  0  0  0  0  0
    5.7324  -11.6050    0.0000 N   0  0  0  0  0  0  0  0  0  0  0  0
    6.4380  -11.1831    0.0000 C   0  0  0  0  0  0  0  0  0  0  0  0
    8.5156   -9.0829    0.0000 F   0  0  0  0  0  0  0  0  0  0  0  0
    7.1338   -6.6453    0.0000 C   0  0  0  0  0  0  0  0  0  0  0  0
    7.8470   -6.2322    0.0000 C   0  0  0  0  0  0  0  0  0  0  0  0
    6.4195   -6.2341    0.0000 O   0  0  0  0  0  0  0  0  0  0  0  0
    8.5591   -6.6474    0.0000 C   0  0  0  0  0  0  0  0  0  0  0  0
    9.2701   -6.2379    0.0000 C   0  0  0  0  0  0  0  0  0  0  0  0
    9.2733   -5.4133    0.0000 C   0  0  0  0  0  0  0  0  0  0  0  0
    8.5591   -5.0000    0.0000 C   0  0  0  0  0  0  0  0  0  0  0  0
    7.8418   -5.4112    0.0000 C   0  0  0  0  0  0  0  0  0  0  0  0
 11  5  1  0  0  0  0
 13  8  2  0  0  0  0
 14 15  1  0  0  0  0
 14 11  2  0  0  0  0
  3  1  1  0  0  0  0
  2  1  1  0  0  0  0
  3  7  1  0  0  0  0
  7  6  1  0  0  0  0
  4 16  2  0  0  0  0
  5  2  2  0  0  0  0
 16 17  1  0  0  0  0
  6  9  1  0  0  0  0
 17 18  2  0  0  0  0
  1  4  1  0  0  0  0
 18 19  1  0  0  0  0
  8  2  1  0  0  0  0
 19 20  2  0  0  0  0
 20  4  1  0  0  0  0
  9 12  1  0  0  0  0
  8 21  1  0  0  0  0
 12 10  1  0  0  0  0
  9 22  1  0  0  0  0
 10  3  1  0  0  0  0
 22 23  1  0  0  0  0
 14 13  1  0  0  0  0
 22 24  2  0  0  0  0
 23 25  1  0  0  0  0
 23 29  1  0  0  0  0
 25 26  1  0  0  0  0
 26 27  1  0  0  0  0
 27 28  1  0  0  0  0
 28 29  1  0  0  0  0
M  END
> <Molecule Name>
DNDI1388149

> <CDD Number>
CDD-1535321

> <IC50_uM>
0.028 (n=1)

$$$$

SketchEl molfile

 29 32  0  0  0  0  0  0  0  0999 V2000
    7.1328   -9.9402    0.0000 C   0  0  0  0  0  0  0  0  0  0  0  0
    7.8488  -10.3523    0.0000 C   0  0  0  0  0  0  0  0  0  0  0  0
    7.1328   -9.1160    0.0000 N   0  0  0  0  0  0  0  0  0  0  0  0
    6.4238  -10.3605    0.0000 C   0  0  0  0  0  0  0  0  0  0  0  0
    7.8446  -11.1765    0.0000 C   0  0  0  0  0  0  0  0  0  0  0  0
    7.8492   -7.8824    0.0000 C   0  0  0  0  0  0  0  0  0  0  0  0
    7.8489   -8.7058    0.0000 C   0  0  0  0  0  0  0  0  0  0  0  0
    8.5314   -9.9069    0.0000 C   0  0  0  0  0  0  0  0  0  0  0  0
    7.1349   -7.4695    0.0000 N   0  0  0  0  0  0  0  0  0  0  0  0
    6.4219   -8.7080    0.0000 C   0  0  0  0  0  0  0  0  0  0  0  0
    8.5564  -11.5886    0.0000 C   0  0  0  0  0  0  0  0  0  0  0  0
    6.4188   -7.8860    0.0000 C   0  0  0  0  0  0  0  0  0  0  0  0
    9.2682  -10.3482    0.0000 C   0  0  0  0  0  0  0  0  0  0  0  0
    9.2724  -11.1765    0.0000 C   0  0  0  0  0  0  0  0  0  0  0  0
    9.9869  -11.5873    0.0000 Cl  0  0  0  0  0  0  0  0  0  0  0  0
    5.7085   -9.9567    0.0000 C   0  0  0  0  0  0  0  0  0  0  0  0
    5.0000  -10.3763    0.0000 C   0  0  0  0  0  0  0  0  0  0  0  0
    5.0090  -11.2013    0.0000 C   0  0  0  0  0  0  0  0  0  0  0  0
    5.7324  -11.6050    0.0000 N   0  0  0  0  0  0  0  0  0  0  0  0
    6.4380  -11.1831    0.0000 C   0  0  0  0  0  0  0  0  0  0  0  0
    8.5156   -9.0829    0.0000 F   0  0  0  0  0  0  0  0  0  0  0  0
    7.1338   -6.6453    0.0000 C   0  0  0  0  0  0  0  0  0  0  0  0
    7.8470   -6.2322    0.0000 C   0  0  0  0  0  0  0  0  0  0  0  0
    6.4195   -6.2341    0.0000 O   0  0  0  0  0  0  0  0  0  0  0  0
    8.5591   -6.6474    0.0000 C   0  0  0  0  0  0  0  0  0  0  0  0
    9.2701   -6.2379    0.0000 C   0  0  0  0  0  0  0  0  0  0  0  0
    9.2733   -5.4133    0.0000 C   0  0  0  0  0  0  0  0  0  0  0  0
    8.5591   -5.0000    0.0000 C   0  0  0  0  0  0  0  0  0  0  0  0
    7.8418   -5.4112    0.0000 C   0  0  0  0  0  0  0  0  0  0  0  0
 11  5  1  0  0  0  0
 13  8  2  0  0  0  0
 14 15  1  0  0  0  0
 14 11  2  0  0  0  0
  3  1  1  0  0  0  0
  2  1  1  0  0  0  0
  3  7  1  0  0  0  0
  7  6  1  0  0  0  0
  4 16  2  0  0  0  0
  5  2  2  0  0  0  0
 16 17  1  0  0  0  0
  6  9  1  0  0  0  0
 17 18  2  0  0  0  0
  1  4  1  0  0  0  0
 18 19  1  0  0  0  0
  8  2  1  0  0  0  0
 19 20  2  0  0  0  0
 20  4  1  0  0  0  0
  9 12  1  0  0  0  0
  8 21  1  0  0  0  0
 12 10  1  0  0  0  0
  9 22  1  0  0  0  0
 10  3  1  0  0  0  0
 22 23  1  0  0  0  0
 14 13  1  0  0  0  0
 22 24  2  0  0  0  0
 23 25  2  0  0  0  0
 23 29  1  0  0  0  0
 25 26  1  0  0  0  0
 26 27  2  0  0  0  0
 27 28  1  0  0  0  0
 28 29  2  0  0  0  0
M  END
> <Molecule Name>
DNDI1388150

> <CDD Number>
CDD-1535322

> <IC50_uM>
0.07 (n=1)

$$$$

SketchEl molfile

 31 34  0  0  0  0  0  0  0  0999 V2000
    7.1329   -9.9401    0.0000 C   0  0  0  0  0  0  0  0  0  0  0  0
    7.8489  -10.3522    0.0000 C   0  0  0  0  0  0  0  0  0  0  0  0
    7.1329   -9.1159    0.0000 N   0  0  0  0  0  0  0  0  0  0  0  0
    6.4239  -10.3604    0.0000 C   0  0  0  0  0  0  0  0  0  0  0  0
    7.8448  -11.1765    0.0000 C   0  0  0  0  0  0  0  0  0  0  0  0
    7.8494   -7.8821    0.0000 C   0  0  0  0  0  0  0  0  0  0  0  0
    7.8491   -8.7056    0.0000 C   0  0  0  0  0  0  0  0  0  0  0  0
    8.5317   -9.9068    0.0000 C   0  0  0  0  0  0  0  0  0  0  0  0
    7.1351   -7.4692    0.0000 N   0  0  0  0  0  0  0  0  0  0  0  0
    6.4220   -8.7079    0.0000 C   0  0  0  0  0  0  0  0  0  0  0  0
    8.5566  -11.5886    0.0000 C   0  0  0  0  0  0  0  0  0  0  0  0
    6.4189   -7.8857    0.0000 C   0  0  0  0  0  0  0  0  0  0  0  0
    9.2685  -10.3481    0.0000 C   0  0  0  0  0  0  0  0  0  0  0  0
    9.2726  -11.1765    0.0000 C   0  0  0  0  0  0  0  0  0  0  0  0
    9.9872  -11.5873    0.0000 O   0  0  0  0  0  0  0  0  0  0  0  0
    5.7086   -9.9566    0.0000 C   0  0  0  0  0  0  0  0  0  0  0  0
    5.0000  -10.3762    0.0000 N   0  0  0  0  0  0  0  0  0  0  0  0
    5.0090  -11.2013    0.0000 C   0  0  0  0  0  0  0  0  0  0  0  0
    5.7325  -11.6050    0.0000 C   0  0  0  0  0  0  0  0  0  0  0  0
    6.4381  -11.1831    0.0000 C   0  0  0  0  0  0  0  0  0  0  0  0
   10.7003  -11.1739    0.0000 C   0  0  0  0  0  0  0  0  0  0  0  0
   11.4149  -11.5847    0.0000 C   0  0  0  0  0  0  0  0  0  0  0  0
   10.6988  -10.3496    0.0000 C   0  0  0  0  0  0  0  0  0  0  0  0
    7.1340   -6.6449    0.0000 C   0  0  0  0  0  0  0  0  0  0  0  0
    7.8485   -6.2355    0.0000 C   0  0  0  0  0  0  0  0  0  0  0  0
    7.8478   -5.4120    0.0000 C   0  0  0  0  0  0  0  0  0  0  0  0
    7.1329   -5.0000    0.0000 C   0  0  0  0  0  0  0  0  0  0  0  0
    6.4172   -5.4175    0.0000 C   0  0  0  0  0  0  0  0  0  0  0  0
    6.4215   -6.2397    0.0000 C   0  0  0  0  0  0  0  0  0  0  0  0
    8.5618   -6.6485    0.0000 O   0  0  0  0  0  0  0  0  0  0  0  0
    9.2762   -6.2372    0.0000 C   0  0  0  0  0  0  0  0  0  0  0  0
  4 16  2  0  0  0  0
  5  2  2  0  0  0  0
 16 17  1  0  0  0  0
  6  9  1  0  0  0  0
 17 18  2  0  0  0  0
  1  4  1  0  0  0  0
 18 19  1  0  0  0  0
  8  2  1  0  0  0  0
 19 20  2  0  0  0  0
 20  4  1  0  0  0  0
  9 12  1  0  0  0  0
 12 10  1  0  0  0  0
 15 21  1  0  0  0  0
 10  3  1  0  0  0  0
 21 22  1  0  0  0  0
 14 13  1  0  0  0  0
 21 23  1  0  0  0  0
 11  5  1  0  0  0  0
  9 24  1  0  0  0  0
 13  8  2  0  0  0  0
 24 25  2  0  0  0  0
 14 15  1  0  0  0  0
 25 26  1  0  0  0  0
 14 11  2  0  0  0  0
 26 27  2  0  0  0  0
  3  1  1  0  0  0  0
 27 28  1  0  0  0  0
  2  1  1  0  0  0  0
 28 29  2  0  0  0  0
 29 24  1  0  0  0  0
  3  7  1  0  0  0  0
 25 30  1  0  0  0  0
  7  6  1  0  0  0  0
 30 31  1  0  0  0  0
M  END
> <Molecule Name>
DNDI1388157

> <CDD Number>
CDD-1535323

> <IC50_uM>
0.028 (n=1)

$$$$

SketchEl molfile

 23 25  0  0  0  0  0  0  0  0999 V2000
    7.1245   -8.2821    0.0000 C   0  0  0  0  0  0  0  0  0  0  0  0
    7.8376   -8.6926    0.0000 C   0  0  0  0  0  0  0  0  0  0  0  0
    7.1245   -7.4612    0.0000 C   0  0  0  0  0  0  0  0  0  0  0  0
    6.4182   -8.7007    0.0000 C   0  0  0  0  0  0  0  0  0  0  0  0
    7.8335   -9.5136    0.0000 C   0  0  0  0  0  0  0  0  0  0  0  0
    7.8381   -6.2323    0.0000 C   0  0  0  0  0  0  0  0  0  0  0  0
    7.8874   -7.8177    0.0000 O   0  0  0  0  0  0  0  0  0  0  0  0
    7.8378   -7.0525    0.0000 C   0  0  0  0  0  0  0  0  0  0  0  0
    8.5176   -8.2490    0.0000 C   0  0  0  0  0  0  0  0  0  0  0  0
    7.1266   -5.8210    0.0000 C   0  0  0  0  0  0  0  0  0  0  0  0
    6.4164   -7.0548    0.0000 C   0  0  0  0  0  0  0  0  0  0  0  0
    8.5425   -9.9241    0.0000 C   0  0  0  0  0  0  0  0  0  0  0  0
    6.4132   -6.2359    0.0000 C   0  0  0  0  0  0  0  0  0  0  0  0
    9.2515   -8.6885    0.0000 C   0  0  0  0  0  0  0  0  0  0  0  0
    9.2557   -9.5136    0.0000 C   0  0  0  0  0  0  0  0  0  0  0  0
    9.9674   -9.9228    0.0000 Cl  0  0  0  0  0  0  0  0  0  0  0  0
    5.7058   -8.2986    0.0000 C   0  0  0  0  0  0  0  0  0  0  0  0
    5.0000   -8.7165    0.0000 N   0  0  0  0  0  0  0  0  0  0  0  0
    5.0090   -9.5383    0.0000 C   0  0  0  0  0  0  0  0  0  0  0  0
    5.7296   -9.9404    0.0000 C   0  0  0  0  0  0  0  0  0  0  0  0
    6.4324   -9.5202    0.0000 C   0  0  0  0  0  0  0  0  0  0  0  0
    5.7067   -7.4675    0.0000 F   0  0  0  0  0  0  0  0  0  0  0  0
    7.1255   -5.0000    0.0000 Br  0  0  0  0  0  0  0  0  0  0  0  0
 18 19  2  0  0  0  0
  1  4  1  0  0  0  0
 19 20  1  0  0  0  0
  9  2  1  0  0  0  0
 20 21  2  0  0  0  0
 21  4  1  0  0  0  0
 10 13  1  0  0  0  0
  7  1  1  0  0  0  0
 13 11  2  0  0  0  0
 11  3  1  0  0  0  0
 15 14  1  0  0  0  0
 12  5  1  0  0  0  0
 14  9  2  0  0  0  0
 15 16  1  0  0  0  0
 15 12  2  0  0  0  0
  3  1  1  0  0  0  0
  2  1  1  0  0  0  0
  3  8  2  0  0  0  0
  8  6  1  0  0  0  0
  4 17  2  0  0  0  0
  5  2  2  0  0  0  0
 17 18  1  0  0  0  0
 11 22  1  0  0  0  0
  6 10  2  0  0  0  0
 10 23  1  0  0  0  0
M  END
> <Molecule Name>
DNDI1388158

> <CDD Number>
CDD-1535324

> <IC50_uM>
0.027 (n=1)

$$$$

SketchEl molfile

 26 28  0  0  0  0  0  0  0  0999 V2000
    7.1256   -8.2839    0.0000 C   0  0  0  0  0  0  0  0  0  0  0  0
    7.8391   -8.6946    0.0000 C   0  0  0  0  0  0  0  0  0  0  0  0
    7.1256   -7.4625    0.0000 C   0  0  0  0  0  0  0  0  0  0  0  0
    6.4190   -8.7027    0.0000 C   0  0  0  0  0  0  0  0  0  0  0  0
    7.8350   -9.5160    0.0000 C   0  0  0  0  0  0  0  0  0  0  0  0
    7.8396   -6.2330    0.0000 C   0  0  0  0  0  0  0  0  0  0  0  0
    7.8889   -7.8193    0.0000 O   0  0  0  0  0  0  0  0  0  0  0  0
    7.8392   -7.0537    0.0000 C   0  0  0  0  0  0  0  0  0  0  0  0
    8.5195   -8.2507    0.0000 C   0  0  0  0  0  0  0  0  0  0  0  0
    7.1277   -5.8215    0.0000 C   0  0  0  0  0  0  0  0  0  0  0  0
    6.4171   -7.0559    0.0000 C   0  0  0  0  0  0  0  0  0  0  0  0
    8.5444   -9.9267    0.0000 C   0  0  0  0  0  0  0  0  0  0  0  0
    6.4140   -6.2366    0.0000 C   0  0  0  0  0  0  0  0  0  0  0  0
    9.2538   -8.6905    0.0000 C   0  0  0  0  0  0  0  0  0  0  0  0
    9.2579   -9.5160    0.0000 C   0  0  0  0  0  0  0  0  0  0  0  0
    9.9700   -9.9254    0.0000 Cl  0  0  0  0  0  0  0  0  0  0  0  0
    5.7061   -8.3004    0.0000 C   0  0  0  0  0  0  0  0  0  0  0  0
    5.0000   -8.7185    0.0000 N   0  0  0  0  0  0  0  0  0  0  0  0
    5.0090   -9.5407    0.0000 C   0  0  0  0  0  0  0  0  0  0  0  0
    5.7300   -9.9430    0.0000 C   0  0  0  0  0  0  0  0  0  0  0  0
    6.4331   -9.5226    0.0000 C   0  0  0  0  0  0  0  0  0  0  0  0
    5.7071   -7.4689    0.0000 F   0  0  0  0  0  0  0  0  0  0  0  0
    7.1266   -5.0001    0.0000 C   0  0  0  0  0  0  0  0  0  0  0  0
    7.8374   -4.5884    0.0000 F   0  0  0  0  0  0  0  0  0  0  0  0
    6.4147   -4.5903    0.0000 F   0  0  0  0  0  0  0  0  0  0  0  0
    7.9203   -5.2116    0.0000 F   0  0  0  0  0  0  0  0  0  0  0  0
 10 23  1  0  0  0  0
 23 24  1  0  0  0  0
 23 25  1  0  0  0  0
 23 26  1  0  0  0  0
 10 13  1  0  0  0  0
  7  1  1  0  0  0  0
 13 11  2  0  0  0  0
 11  3  1  0  0  0  0
 15 14  1  0  0  0  0
 12  5  1  0  0  0  0
 14  9  2  0  0  0  0
 15 16  1  0  0  0  0
 15 12  2  0  0  0  0
  3  1  1  0  0  0  0
  2  1  1  0  0  0  0
  3  8  2  0  0  0  0
  8  6  1  0  0  0  0
  4 17  2  0  0  0  0
  5  2  2  0  0  0  0
 17 18  1  0  0  0  0
 11 22  1  0  0  0  0
  6 10  2  0  0  0  0
 18 19  2  0  0  0  0
  1  4  1  0  0  0  0
 19 20  1  0  0  0  0
  9  2  1  0  0  0  0
 20 21  2  0  0  0  0
 21  4  1  0  0  0  0
M  END
> <Molecule Name>
DNDI1388159

> <CDD Number>
CDD-1535325

> <IC50_uM>
0.021 (n=1)

$$$$

SketchEl molfile

 27 29  0  0  0  0  0  0  0  0999 V2000
    7.1259   -9.5194    0.0000 C   0  0  0  0  0  0  0  0  0  0  0  0
    7.8395   -9.9302    0.0000 C   0  0  0  0  0  0  0  0  0  0  0  0
    7.1259   -8.6979    0.0000 C   0  0  0  0  0  0  0  0  0  0  0  0
    6.4192   -9.9383    0.0000 C   0  0  0  0  0  0  0  0  0  0  0  0
    7.8354  -10.7517    0.0000 C   0  0  0  0  0  0  0  0  0  0  0  0
    7.8400   -7.4682    0.0000 N   0  0  0  0  0  0  0  0  0  0  0  0
    7.8893   -9.0547    0.0000 O   0  0  0  0  0  0  0  0  0  0  0  0
    7.8397   -8.2890    0.0000 C   0  0  0  0  0  0  0  0  0  0  0  0
    8.5200   -9.4862    0.0000 C   0  0  0  0  0  0  0  0  0  0  0  0
    7.1280   -7.0566    0.0000 C   0  0  0  0  0  0  0  0  0  0  0  0
    6.4173   -8.2912    0.0000 C   0  0  0  0  0  0  0  0  0  0  0  0
    8.5449  -11.1625    0.0000 C   0  0  0  0  0  0  0  0  0  0  0  0
    6.4142   -7.4718    0.0000 N   0  0  0  0  0  0  0  0  0  0  0  0
    9.2544   -9.9260    0.0000 C   0  0  0  0  0  0  0  0  0  0  0  0
    9.2585  -10.7517    0.0000 C   0  0  0  0  0  0  0  0  0  0  0  0
    9.9708  -11.1612    0.0000 Cl  0  0  0  0  0  0  0  0  0  0  0  0
    5.7062   -9.5359    0.0000 C   0  0  0  0  0  0  0  0  0  0  0  0
    5.0000   -9.9541    0.0000 N   0  0  0  0  0  0  0  0  0  0  0  0
    5.0090  -10.7764    0.0000 C   0  0  0  0  0  0  0  0  0  0  0  0
    5.7301  -11.1788    0.0000 C   0  0  0  0  0  0  0  0  0  0  0  0
    6.4334  -10.7583    0.0000 C   0  0  0  0  0  0  0  0  0  0  0  0
    7.1269   -6.2351    0.0000 O   0  0  0  0  0  0  0  0  0  0  0  0
    7.8378   -5.8234    0.0000 C   0  0  0  0  0  0  0  0  0  0  0  0
    8.5498   -6.2332    0.0000 C   0  0  0  0  0  0  0  0  0  0  0  0
    9.2608   -5.8215    0.0000 N   0  0  0  0  0  0  0  0  0  0  0  0
    9.9728   -6.2313    0.0000 C   0  0  0  0  0  0  0  0  0  0  0  0
    9.2597   -5.0000    0.0000 C   0  0  0  0  0  0  0  0  0  0  0  0
 12  5  1  0  0  0  0
 14  9  2  0  0  0  0
 15 16  1  0  0  0  0
 15 12  2  0  0  0  0
  3  1  1  0  0  0  0
  2  1  1  0  0  0  0
  3  8  2  0  0  0  0
  8  6  1  0  0  0  0
  4 17  2  0  0  0  0
  5  2  2  0  0  0  0
 17 18  1  0  0  0  0
  6 10  2  0  0  0  0
 18 19  2  0  0  0  0
  1  4  1  0  0  0  0
 19 20  1  0  0  0  0
  9  2  1  0  0  0  0
 20 21  2  0  0  0  0
 21  4  1  0  0  0  0
 10 22  1  0  0  0  0
 10 13  1  0  0  0  0
 22 23  1  0  0  0  0
  7  1  1  0  0  0  0
 23 24  1  0  0  0  0
 13 11  2  0  0  0  0
 24 25  1  0  0  0  0
 11  3  1  0  0  0  0
 25 26  1  0  0  0  0
 15 14  1  0  0  0  0
 25 27  1  0  0  0  0
M  END
> <Molecule Name>
DNDI1388160

> <CDD Number>
CDD-1535326

> <IC50_uM>
> 1.0 (n=1)

$$$$

SketchEl molfile

 22 23  0  0  0  0  0  0  0  0999 V2000
    7.1315   -7.4687    0.0000 C   0  0  0  0  0  0  0  0  0  0  0  0
    7.8470   -7.8806    0.0000 C   0  0  0  0  0  0  0  0  0  0  0  0
    7.1315   -6.6450    0.0000 N   0  0  0  0  0  0  0  0  0  0  0  0
    6.4229   -7.8887    0.0000 C   0  0  0  0  0  0  0  0  0  0  0  0
    7.8429   -8.7043    0.0000 C   0  0  0  0  0  0  0  0  0  0  0  0
    7.8475   -5.4121    0.0000 C   0  0  0  0  0  0  0  0  0  0  0  0
    7.8471   -6.2351    0.0000 C   0  0  0  0  0  0  0  0  0  0  0  0
    8.5293   -7.4355    0.0000 C   0  0  0  0  0  0  0  0  0  0  0  0
    8.5542   -9.1161    0.0000 C   0  0  0  0  0  0  0  0  0  0  0  0
    9.2656   -7.8764    0.0000 C   0  0  0  0  0  0  0  0  0  0  0  0
    9.2698   -8.7043    0.0000 C   0  0  0  0  0  0  0  0  0  0  0  0
    5.7081   -7.4852    0.0000 N   0  0  0  0  0  0  0  0  0  0  0  0
    5.0000   -7.9045    0.0000 C   0  0  0  0  0  0  0  0  0  0  0  0
    5.0090   -8.7291    0.0000 C   0  0  0  0  0  0  0  0  0  0  0  0
    5.7320   -9.1325    0.0000 N   0  0  0  0  0  0  0  0  0  0  0  0
    6.4371   -8.7109    0.0000 C   0  0  0  0  0  0  0  0  0  0  0  0
    8.5610   -5.0006    0.0000 C   0  0  0  0  0  0  0  0  0  0  0  0
    7.1343   -5.0000    0.0000 C   0  0  0  0  0  0  0  0  0  0  0  0
    9.9839   -9.1148    0.0000 C   0  0  0  0  0  0  0  0  0  0  0  0
    9.9854   -9.9385    0.0000 F   0  0  0  0  0  0  0  0  0  0  0  0
   10.6964   -8.7016    0.0000 F   0  0  0  0  0  0  0  0  0  0  0  0
    9.4025   -9.6983    0.0000 F   0  0  0  0  0  0  0  0  0  0  0  0
 11 19  1  0  0  0  0
 19 20  1  0  0  0  0
 19 21  1  0  0  0  0
 19 22  1  0  0  0  0
  4 12  2  0  0  0  0
  5  2  2  0  0  0  0
 12 13  1  0  0  0  0
 13 14  2  0  0  0  0
  1  4  1  0  0  0  0
 14 15  1  0  0  0  0
  8  2  1  0  0  0  0
 15 16  2  0  0  0  0
 16  4  1  0  0  0  0
 11 10  1  0  0  0  0
  6 17  1  0  0  0  0
  9  5  1  0  0  0  0
  6 18  1  0  0  0  0
 10  8  2  0  0  0  0
 11  9  2  0  0  0  0
  3  1  1  0  0  0  0
  2  1  1  0  0  0  0
  3  7  1  0  0  0  0
  7  6  1  0  0  0  0
M  END
> <Molecule Name>
DNDI1388394

> <CDD Number>
CDD-1535327

> <IC50_uM>
0.8 (n=1)

$$$$

SketchEl molfile

 25 27  0  0  0  0  0  0  0  0999 V2000
    7.1312   -8.7107    0.0000 C   0  0  0  0  0  0  0  0  0  0  0  0
    7.8467   -9.1225    0.0000 C   0  0  0  0  0  0  0  0  0  0  0  0
    6.4227   -9.1307    0.0000 C   0  0  0  0  0  0  0  0  0  0  0  0
    7.8425   -9.9461    0.0000 C   0  0  0  0  0  0  0  0  0  0  0  0
    8.5288   -8.6775    0.0000 C   0  0  0  0  0  0  0  0  0  0  0  0
    8.5538  -10.3579    0.0000 C   0  0  0  0  0  0  0  0  0  0  0  0
    9.2651   -9.1184    0.0000 C   0  0  0  0  0  0  0  0  0  0  0  0
    9.2692   -9.9461    0.0000 C   0  0  0  0  0  0  0  0  0  0  0  0
    5.7080   -8.7273    0.0000 C   0  0  0  0  0  0  0  0  0  0  0  0
    5.0000   -9.1465    0.0000 C   0  0  0  0  0  0  0  0  0  0  0  0
    5.0090   -9.9709    0.0000 C   0  0  0  0  0  0  0  0  0  0  0  0
    5.7319  -10.3743    0.0000 N   0  0  0  0  0  0  0  0  0  0  0  0
    6.4370   -9.9527    0.0000 C   0  0  0  0  0  0  0  0  0  0  0  0
    7.1260   -7.8872    0.0000 C   0  0  0  0  0  0  0  0  0  0  0  0
    7.8444   -8.2820    0.0000 O   0  0  0  0  0  0  0  0  0  0  0  0
    7.8383   -7.4718    0.0000 C   0  0  0  0  0  0  0  0  0  0  0  0
    7.8334   -6.6489    0.0000 C   0  0  0  0  0  0  0  0  0  0  0  0
    7.1170   -6.2409    0.0000 C   0  0  0  0  0  0  0  0  0  0  0  0
    6.4041   -6.6617    0.0000 C   0  0  0  0  0  0  0  0  0  0  0  0
    6.4125   -7.4831    0.0000 C   0  0  0  0  0  0  0  0  0  0  0  0
    5.7031   -7.9015    0.0000 F   0  0  0  0  0  0  0  0  0  0  0  0
    7.1107   -5.4173    0.0000 C   0  0  0  0  0  0  0  0  0  0  0  0
    7.8207   -5.0000    0.0000 N   0  0  0  0  0  0  0  0  0  0  0  0
    6.3943   -5.0110    0.0000 O   0  0  0  0  0  0  0  0  0  0  0  0
    9.9832  -10.3566    0.0000 Cl  0  0  0  0  0  0  0  0  0  0  0  0
  7  5  2  0  0  0  0
  8  6  2  0  0  0  0
  2  1  1  0  0  0  0
  1 14  1  0  0  0  0
  3  9  2  0  0  0  0
  1 15  1  0  0  0  0
  4  2  2  0  0  0  0
 14 16  2  0  0  0  0
  9 10  1  0  0  0  0
 16 17  1  0  0  0  0
 10 11  2  0  0  0  0
 17 18  2  0  0  0  0
  1  3  1  0  0  0  0
 18 19  1  0  0  0  0
 11 12  1  0  0  0  0
 19 20  2  0  0  0  0
 20 14  1  0  0  0  0
  5  2  1  0  0  0  0
 20 21  1  0  0  0  0
 12 13  2  0  0  0  0
 18 22  1  0  0  0  0
 13  3  1  0  0  0  0
 22 23  1  0  0  0  0
  8  7  1  0  0  0  0
 22 24  2  0  0  0  0
  6  4  1  0  0  0  0
  8 25  1  0  0  0  0
M  END
> <Molecule Name>
DNDI1388395

> <CDD Number>
CDD-1535328

> <IC50_uM>
0.66 (n=1)

$$$$

SketchEl molfile

 24 26  0  0  0  0  0  0  0  0999 V2000
    7.1319   -7.4707    0.0000 C   0  0  0  0  0  0  0  0  0  0  0  0
    7.8476   -7.8827    0.0000 C   0  0  0  0  0  0  0  0  0  0  0  0
    6.4232   -7.8908    0.0000 C   0  0  0  0  0  0  0  0  0  0  0  0
    7.8435   -8.7065    0.0000 C   0  0  0  0  0  0  0  0  0  0  0  0
    8.5300   -7.4374    0.0000 C   0  0  0  0  0  0  0  0  0  0  0  0
    8.5550   -9.1185    0.0000 C   0  0  0  0  0  0  0  0  0  0  0  0
    9.2665   -7.8785    0.0000 C   0  0  0  0  0  0  0  0  0  0  0  0
    9.2707   -8.7065    0.0000 C   0  0  0  0  0  0  0  0  0  0  0  0
    5.7083   -7.4872    0.0000 C   0  0  0  0  0  0  0  0  0  0  0  0
    5.0000   -7.9066    0.0000 C   0  0  0  0  0  0  0  0  0  0  0  0
    5.0090   -8.7313    0.0000 C   0  0  0  0  0  0  0  0  0  0  0  0
    5.7322   -9.1348    0.0000 N   0  0  0  0  0  0  0  0  0  0  0  0
    6.4374   -8.7131    0.0000 C   0  0  0  0  0  0  0  0  0  0  0  0
    7.1267   -6.6469    0.0000 C   0  0  0  0  0  0  0  0  0  0  0  0
    7.8393   -6.2313    0.0000 C   0  0  0  0  0  0  0  0  0  0  0  0
    7.8344   -5.4082    0.0000 C   0  0  0  0  0  0  0  0  0  0  0  0
    7.1177   -5.0000    0.0000 C   0  0  0  0  0  0  0  0  0  0  0  0
    6.4046   -5.4209    0.0000 C   0  0  0  0  0  0  0  0  0  0  0  0
    6.4130   -6.2426    0.0000 C   0  0  0  0  0  0  0  0  0  0  0  0
    5.7033   -6.6612    0.0000 F   0  0  0  0  0  0  0  0  0  0  0  0
    9.9849   -9.1171    0.0000 C   0  0  0  0  0  0  0  0  0  0  0  0
    9.9864   -9.9410    0.0000 F   0  0  0  0  0  0  0  0  0  0  0  0
   10.6976   -8.7039    0.0000 F   0  0  0  0  0  0  0  0  0  0  0  0
    9.4034   -9.7008    0.0000 F   0  0  0  0  0  0  0  0  0  0  0  0
  8 21  1  0  0  0  0
 21 22  1  0  0  0  0
 21 23  1  0  0  0  0
 21 24  1  0  0  0  0
 14 15  2  0  0  0  0
  9 10  1  0  0  0  0
 15 16  1  0  0  0  0
 10 11  2  0  0  0  0
 16 17  2  0  0  0  0
  1  3  1  0  0  0  0
 17 18  1  0  0  0  0
 11 12  1  0  0  0  0
 18 19  2  0  0  0  0
 19 14  1  0  0  0  0
  5  2  1  0  0  0  0
 19 20  1  0  0  0  0
 12 13  2  0  0  0  0
 13  3  1  0  0  0  0
  8  7  1  0  0  0  0
  6  4  1  0  0  0  0
  7  5  2  0  0  0  0
  8  6  2  0  0  0  0
  2  1  1  0  0  0  0
  1 14  1  0  0  0  0
  3  9  2  0  0  0  0
  4  2  2  0  0  0  0
M  END
> <Molecule Name>
DNDI1388396

> <CDD Number>
CDD-1535329

> <IC50_uM>
0.15 (n=1)

$$$$

SketchEl molfile

 24 26  0  0  0  0  0  0  0  0999 V2000
    7.1319   -8.2945    0.0000 C   0  0  0  0  0  0  0  0  0  0  0  0
    7.8476   -8.7065    0.0000 C   0  0  0  0  0  0  0  0  0  0  0  0
    6.4232   -8.7146    0.0000 C   0  0  0  0  0  0  0  0  0  0  0  0
    7.8434   -9.5303    0.0000 C   0  0  0  0  0  0  0  0  0  0  0  0
    8.5300   -8.2613    0.0000 C   0  0  0  0  0  0  0  0  0  0  0  0
    8.5549   -9.9422    0.0000 C   0  0  0  0  0  0  0  0  0  0  0  0
    9.2664   -8.7023    0.0000 C   0  0  0  0  0  0  0  0  0  0  0  0
    9.2706   -9.5303    0.0000 C   0  0  0  0  0  0  0  0  0  0  0  0
    5.7082   -8.3110    0.0000 C   0  0  0  0  0  0  0  0  0  0  0  0
    5.0000   -8.7304    0.0000 C   0  0  0  0  0  0  0  0  0  0  0  0
    5.0090   -9.5551    0.0000 C   0  0  0  0  0  0  0  0  0  0  0  0
    5.7321   -9.9586    0.0000 N   0  0  0  0  0  0  0  0  0  0  0  0
    6.4374   -9.5369    0.0000 C   0  0  0  0  0  0  0  0  0  0  0  0
    7.1266   -7.4707    0.0000 C   0  0  0  0  0  0  0  0  0  0  0  0
    7.8392   -7.0552    0.0000 C   0  0  0  0  0  0  0  0  0  0  0  0
    7.8343   -6.2321    0.0000 C   0  0  0  0  0  0  0  0  0  0  0  0
    7.1177   -5.8239    0.0000 C   0  0  0  0  0  0  0  0  0  0  0  0
    6.4045   -6.2448    0.0000 C   0  0  0  0  0  0  0  0  0  0  0  0
    6.4129   -7.0665    0.0000 C   0  0  0  0  0  0  0  0  0  0  0  0
    5.7033   -7.4850    0.0000 F   0  0  0  0  0  0  0  0  0  0  0  0
    7.8434   -7.8785    0.0000 O   0  0  0  0  0  0  0  0  0  0  0  0
    9.9848   -9.9409    0.0000 Cl  0  0  0  0  0  0  0  0  0  0  0  0
    7.1113   -5.0001    0.0000 C   0  0  0  0  0  0  0  0  0  0  0  0
    7.8216   -4.5826    0.0000 N   0  0  0  0  0  0  0  0  0  0  0  0
 17 23  1  0  0  0  0
 23 24  3  0  0  0  0
 16 17  2  0  0  0  0
  1  3  1  0  0  0  0
 17 18  1  0  0  0  0
 11 12  1  0  0  0  0
 18 19  2  0  0  0  0
 19 14  1  0  0  0  0
  5  2  1  0  0  0  0
 19 20  1  0  0  0  0
 12 13  2  0  0  0  0
 13  3  1  0  0  0  0
  8  7  1  0  0  0  0
  6  4  1  0  0  0  0
  7  5  2  0  0  0  0
  8  6  2  0  0  0  0
  2  1  1  0  0  0  0
  1 14  1  0  0  0  0
  3  9  2  0  0  0  0
  4  2  2  0  0  0  0
  1 21  1  0  0  0  0
 14 15  2  0  0  0  0
  8 22  1  0  0  0  0
  9 10  1  0  0  0  0
 15 16  1  0  0  0  0
 10 11  2  0  0  0  0
M  END
> <Molecule Name>
DNDI1388397

> <CDD Number>
CDD-1535330

> <IC50_uM>
0.026 (n=1)

$$$$

SketchEl molfile

 28 30  0  0  0  0  0  0  0  0999 V2000
    7.1323   -9.5366    0.0000 C   0  0  0  0  0  0  0  0  0  0  0  0
    7.8481   -9.9486    0.0000 C   0  0  0  0  0  0  0  0  0  0  0  0
    6.4235   -9.9567    0.0000 C   0  0  0  0  0  0  0  0  0  0  0  0
    7.8440  -10.7726    0.0000 C   0  0  0  0  0  0  0  0  0  0  0  0
    8.5307   -9.5033    0.0000 C   0  0  0  0  0  0  0  0  0  0  0  0
    8.5556  -11.1846    0.0000 C   0  0  0  0  0  0  0  0  0  0  0  0
    9.2673   -9.9444    0.0000 C   0  0  0  0  0  0  0  0  0  0  0  0
    9.2714  -10.7726    0.0000 C   0  0  0  0  0  0  0  0  0  0  0  0
    5.7084   -9.5531    0.0000 C   0  0  0  0  0  0  0  0  0  0  0  0
    5.0000   -9.9725    0.0000 C   0  0  0  0  0  0  0  0  0  0  0  0
    5.0090  -10.7974    0.0000 C   0  0  0  0  0  0  0  0  0  0  0  0
    5.7323  -11.2010    0.0000 N   0  0  0  0  0  0  0  0  0  0  0  0
    6.4377  -10.7792    0.0000 C   0  0  0  0  0  0  0  0  0  0  0  0
    7.1271   -8.7126    0.0000 N   0  0  0  0  0  0  0  0  0  0  0  0
    7.8398   -8.2970    0.0000 C   0  0  0  0  0  0  0  0  0  0  0  0
    7.8349   -7.4737    0.0000 C   0  0  0  0  0  0  0  0  0  0  0  0
    7.1181   -7.0654    0.0000 N   0  0  0  0  0  0  0  0  0  0  0  0
    6.4048   -7.4864    0.0000 C   0  0  0  0  0  0  0  0  0  0  0  0
    6.4132   -8.3083    0.0000 C   0  0  0  0  0  0  0  0  0  0  0  0
    9.9858  -11.1833    0.0000 O   0  0  0  0  0  0  0  0  0  0  0  0
   10.6987  -10.7700    0.0000 C   0  0  0  0  0  0  0  0  0  0  0  0
   11.4131  -11.1807    0.0000 C   0  0  0  0  0  0  0  0  0  0  0  0
   10.6972   -9.9460    0.0000 C   0  0  0  0  0  0  0  0  0  0  0  0
    7.1118   -6.2414    0.0000 C   0  0  0  0  0  0  0  0  0  0  0  0
    7.8222   -5.8239    0.0000 C   0  0  0  0  0  0  0  0  0  0  0  0
    6.3950   -5.8350    0.0000 O   0  0  0  0  0  0  0  0  0  0  0  0
    8.5390   -6.2304    0.0000 C   0  0  0  0  0  0  0  0  0  0  0  0
    7.8158   -5.0000    0.0000 C   0  0  0  0  0  0  0  0  0  0  0  0
 12 13  2  0  0  0  0
 13  3  1  0  0  0  0
  8  7  1  0  0  0  0
  6  4  1  0  0  0  0
  7  5  2  0  0  0  0
  8  6  2  0  0  0  0
  2  1  1  0  0  0  0
  1 14  1  0  0  0  0
  3  9  2  0  0  0  0
  4  2  2  0  0  0  0
 14 15  1  0  0  0  0
  8 20  1  0  0  0  0
  9 10  1  0  0  0  0
 15 16  1  0  0  0  0
 10 11  2  0  0  0  0
 20 21  1  0  0  0  0
 16 17  1  0  0  0  0
 21 22  1  0  0  0  0
  1  3  1  0  0  0  0
 21 23  1  0  0  0  0
 17 18  1  0  0  0  0
 17 24  1  0  0  0  0
 11 12  1  0  0  0  0
 24 25  1  0  0  0  0
 18 19  1  0  0  0  0
 24 26  2  0  0  0  0
 19 14  1  0  0  0  0
 25 27  1  0  0  0  0
  5  2  1  0  0  0  0
 25 28  1  0  0  0  0
M  END
> <Molecule Name>
DNDI1388398

> <CDD Number>
CDD-1535331

> <IC50_uM>
0.035 (n=1)

$$$$

SketchEl molfile

 29 32  0  0  0  0  0  0  0  0999 V2000
    7.1326   -9.9413    0.0000 C   0  0  0  0  0  0  0  0  0  0  0  0
    7.8486  -10.3534    0.0000 C   0  0  0  0  0  0  0  0  0  0  0  0
    6.4237  -10.3615    0.0000 C   0  0  0  0  0  0  0  0  0  0  0  0
    7.8444  -11.1776    0.0000 C   0  0  0  0  0  0  0  0  0  0  0  0
    8.5312   -9.9080    0.0000 C   0  0  0  0  0  0  0  0  0  0  0  0
    8.5562  -11.5896    0.0000 C   0  0  0  0  0  0  0  0  0  0  0  0
    9.2679  -10.3493    0.0000 C   0  0  0  0  0  0  0  0  0  0  0  0
    9.2721  -11.1776    0.0000 C   0  0  0  0  0  0  0  0  0  0  0  0
    5.7085   -9.9579    0.0000 C   0  0  0  0  0  0  0  0  0  0  0  0
    5.0000  -10.3774    0.0000 C   0  0  0  0  0  0  0  0  0  0  0  0
    5.0090  -11.2023    0.0000 C   0  0  0  0  0  0  0  0  0  0  0  0
    5.7324  -11.6060    0.0000 N   0  0  0  0  0  0  0  0  0  0  0  0
    6.4379  -11.1842    0.0000 C   0  0  0  0  0  0  0  0  0  0  0  0
    7.1274   -9.1172    0.0000 N   0  0  0  0  0  0  0  0  0  0  0  0
    7.8402   -8.7015    0.0000 C   0  0  0  0  0  0  0  0  0  0  0  0
    7.8353   -7.8782    0.0000 C   0  0  0  0  0  0  0  0  0  0  0  0
    7.1184   -7.4698    0.0000 N   0  0  0  0  0  0  0  0  0  0  0  0
    6.4050   -7.8909    0.0000 C   0  0  0  0  0  0  0  0  0  0  0  0
    6.4134   -8.7129    0.0000 C   0  0  0  0  0  0  0  0  0  0  0  0
    9.9866  -11.5883    0.0000 Cl  0  0  0  0  0  0  0  0  0  0  0  0
    7.1121   -6.6457    0.0000 C   0  0  0  0  0  0  0  0  0  0  0  0
    7.1294  -11.5874    0.0000 F   0  0  0  0  0  0  0  0  0  0  0  0
    7.8243   -6.2307    0.0000 C   0  0  0  0  0  0  0  0  0  0  0  0
    7.8183   -5.4073    0.0000 C   0  0  0  0  0  0  0  0  0  0  0  0
    7.1009   -5.0000    0.0000 C   0  0  0  0  0  0  0  0  0  0  0  0
    6.3880   -5.4220    0.0000 C   0  0  0  0  0  0  0  0  0  0  0  0
    6.3975   -6.2439    0.0000 C   0  0  0  0  0  0  0  0  0  0  0  0
    8.5403   -6.6387    0.0000 O   0  0  0  0  0  0  0  0  0  0  0  0
    9.2517   -6.2226    0.0000 C   0  0  0  0  0  0  0  0  0  0  0  0
  1 14  1  0  0  0  0
  3  9  2  0  0  0  0
  4  2  2  0  0  0  0
 14 15  1  0  0  0  0
  8 20  1  0  0  0  0
  9 10  1  0  0  0  0
 15 16  1  0  0  0  0
 10 11  2  0  0  0  0
 16 17  1  0  0  0  0
  1  3  1  0  0  0  0
 17 18  1  0  0  0  0
 17 21  1  0  0  0  0
 11 12  1  0  0  0  0
 18 19  1  0  0  0  0
 19 14  1  0  0  0  0
  5  2  1  0  0  0  0
  4 22  1  0  0  0  0
 12 13  2  0  0  0  0
 21 23  2  0  0  0  0
 13  3  1  0  0  0  0
 23 24  1  0  0  0  0
  8  7  1  0  0  0  0
 24 25  2  0  0  0  0
  6  4  1  0  0  0  0
 25 26  1  0  0  0  0
  7  5  2  0  0  0  0
 26 27  2  0  0  0  0
 27 21  1  0  0  0  0
  8  6  2  0  0  0  0
 23 28  1  0  0  0  0
  2  1  1  0  0  0  0
 28 29  1  0  0  0  0
M  END
> <Molecule Name>
DNDI1388399

> <CDD Number>
CDD-1535332

> <IC50_uM>
0.045 (n=1)

$$$$

SketchEl molfile

 23 24  0  0  0  0  0  0  0  0999 V2000
    5.0012   -6.9146    0.0000 C   0  0  0  0  0  0  0  0  0  0  0  0
    5.0000   -7.7417    0.0000 C   0  0  0  0  0  0  0  0  0  0  0  0
    5.7146   -8.1545    0.0000 N   0  0  0  0  0  0  0  0  0  0  0  0
    6.4309   -7.7413    0.0000 C   0  0  0  0  0  0  0  0  0  0  0  0
    6.4280   -6.9109    0.0000 C   0  0  0  0  0  0  0  0  0  0  0  0
    5.7128   -6.5019    0.0000 C   0  0  0  0  0  0  0  0  0  0  0  0
    7.1408   -6.4959    0.0000 C   0  0  0  0  0  0  0  0  0  0  0  0
    7.8566   -6.9056    0.0000 C   0  0  0  0  0  0  0  0  0  0  0  0
    8.5693   -6.4905    0.0000 C   0  0  0  0  0  0  0  0  0  0  0  0
    7.8597   -7.7303    0.0000 N   0  0  0  0  0  0  0  0  0  0  0  0
    9.2836   -6.9036    0.0000 C   0  0  0  0  0  0  0  0  0  0  0  0
    9.9958   -6.4892    0.0000 C   0  0  0  0  0  0  0  0  0  0  0  0
    9.9932   -5.6635    0.0000 C   0  0  0  0  0  0  0  0  0  0  0  0
    9.2723   -5.2540    0.0000 C   0  0  0  0  0  0  0  0  0  0  0  0
    8.5630   -5.6708    0.0000 C   0  0  0  0  0  0  0  0  0  0  0  0
   10.7053   -5.2475    0.0000 Cl  0  0  0  0  0  0  0  0  0  0  0  0
    7.8456   -5.2639    0.0000 Cl  0  0  0  0  0  0  0  0  0  0  0  0
    8.5756   -8.1400    0.0000 O   0  0  0  0  0  0  0  0  0  0  0  0
    8.5787   -8.9648    0.0000 C   0  0  0  0  0  0  0  0  0  0  0  0
    9.2945   -9.3745    0.0000 C   0  0  0  0  0  0  0  0  0  0  0  0
    9.2976  -10.1993    0.0000 C   0  0  0  0  0  0  0  0  0  0  0  0
   10.0134  -10.6090    0.0000 C   0  0  0  0  0  0  0  0  0  0  0  0
    8.5849  -10.6144    0.0000 C   0  0  0  0  0  0  0  0  0  0  0  0
  5  6  2  0  0  0  0
 11 12  1  0  0  0  0
  6  1  1  0  0  0  0
 12 13  2  0  0  0  0
  1  2  2  0  0  0  0
 13 14  1  0  0  0  0
  5  7  1  0  0  0  0
 14 15  2  0  0  0  0
 15  9  1  0  0  0  0
  3  4  2  0  0  0  0
 13 16  1  0  0  0  0
  7  8  1  0  0  0  0
 15 17  1  0  0  0  0
 10 18  1  0  0  0  0
  8  9  1  0  0  0  0
 18 19  1  0  0  0  0
  4  5  1  0  0  0  0
 19 20  1  0  0  0  0
  8 10  2  0  0  0  0
 20 21  1  0  0  0  0
  2  3  1  0  0  0  0
 21 22  1  0  0  0  0
  9 11  2  0  0  0  0
 21 23  1  0  0  0  0
M  END
> <Molecule Name>
DNDI1392069

> <CDD Number>
CDD-1535333

> <IC50_uM>
0.0773304597167248 ร/รท 5.55593356154786 (n=2)

$$$$

SketchEl molfile

 23 25  0  0  0  0  0  0  0  0999 V2000
    7.1276   -8.2829    0.0000 C   0  0  0  0  0  0  0  0  0  0  0  0
    7.1276   -7.4617    0.0000 C   0  0  0  0  0  0  0  0  0  0  0  0
    6.4184   -8.6935    0.0000 C   0  0  0  0  0  0  0  0  0  0  0  0
    7.8409   -8.6935    0.0000 C   0  0  0  0  0  0  0  0  0  0  0  0
    5.7133   -9.9211    0.0000 N   0  0  0  0  0  0  0  0  0  0  0  0
    7.8368   -9.5146    0.0000 C   0  0  0  0  0  0  0  0  0  0  0  0
    8.5211   -8.2497    0.0000 C   0  0  0  0  0  0  0  0  0  0  0  0
    7.8907   -7.8184    0.0000 O   0  0  0  0  0  0  0  0  0  0  0  0
    9.2593   -9.5146    0.0000 C   0  0  0  0  0  0  0  0  0  0  0  0
    8.5460   -9.9252    0.0000 C   0  0  0  0  0  0  0  0  0  0  0  0
    9.2552   -8.6893    0.0000 C   0  0  0  0  0  0  0  0  0  0  0  0
    6.4225   -9.5105    0.0000 C   0  0  0  0  0  0  0  0  0  0  0  0
    5.7092   -8.2787    0.0000 C   0  0  0  0  0  0  0  0  0  0  0  0
    5.0000   -9.5105    0.0000 C   0  0  0  0  0  0  0  0  0  0  0  0
    5.0000   -8.6893    0.0000 C   0  0  0  0  0  0  0  0  0  0  0  0
    9.9712   -9.9239    0.0000 Cl  0  0  0  0  0  0  0  0  0  0  0  0
    7.8411   -7.0530    0.0000 C   0  0  0  0  0  0  0  0  0  0  0  0
    7.8414   -6.2326    0.0000 C   0  0  0  0  0  0  0  0  0  0  0  0
    7.1297   -5.8212    0.0000 C   0  0  0  0  0  0  0  0  0  0  0  0
    6.4162   -6.2362    0.0000 C   0  0  0  0  0  0  0  0  0  0  0  0
    6.4194   -7.0552    0.0000 C   0  0  0  0  0  0  0  0  0  0  0  0
    7.1286   -5.0000    0.0000 C   0  0  0  0  0  0  0  0  0  0  0  0
    7.8392   -4.5885    0.0000 N   0  0  0  0  0  0  0  0  0  0  0  0
 19 22  1  0  0  0  0
 22 23  3  0  0  0  0
 12  3  1  0  0  0  0
 13  3  2  0  0  0  0
  9 16  1  0  0  0  0
 14 15  2  0  0  0  0
 15 13  1  0  0  0  0
  9 10  2  0  0  0  0
  5 14  1  0  0  0  0
  2  1  1  0  0  0  0
  2 17  2  0  0  0  0
  3  1  1  0  0  0  0
 17 18  1  0  0  0  0
  4  1  1  0  0  0  0
 18 19  2  0  0  0  0
  5 12  2  0  0  0  0
 19 20  1  0  0  0  0
  6  4  2  0  0  0  0
 20 21  2  0  0  0  0
 21  2  1  0  0  0  0
  7  4  1  0  0  0  0
  8  1  1  0  0  0  0
  9 11  1  0  0  0  0
 10  6  1  0  0  0  0
 11  7  2  0  0  0  0
M  END
> <Molecule Name>
DNDI1392070

> <CDD Number>
CDD-1535334

> <IC50_uM>
0.059 (n=1)

$$$$

SketchEl molfile

 24 26  0  0  0  0  0  0  0  0999 V2000
    7.1352   -8.2945    0.0000 C   0  0  0  0  0  0  0  0  0  0  0  0
    7.1352   -7.4704    0.0000 N   0  0  0  0  0  0  0  0  0  0  0  0
    6.4234   -8.7066    0.0000 C   0  0  0  0  0  0  0  0  0  0  0  0
    7.8510   -8.7066    0.0000 C   0  0  0  0  0  0  0  0  0  0  0  0
    5.7159   -9.9386    0.0000 N   0  0  0  0  0  0  0  0  0  0  0  0
    7.8469   -9.5307    0.0000 C   0  0  0  0  0  0  0  0  0  0  0  0
    8.5336   -8.2612    0.0000 C   0  0  0  0  0  0  0  0  0  0  0  0
    9.2745   -9.5307    0.0000 C   0  0  0  0  0  0  0  0  0  0  0  0
    8.5586   -9.9427    0.0000 C   0  0  0  0  0  0  0  0  0  0  0  0
    9.2703   -8.7024    0.0000 C   0  0  0  0  0  0  0  0  0  0  0  0
    6.4276   -9.5265    0.0000 C   0  0  0  0  0  0  0  0  0  0  0  0
    5.7117   -8.2904    0.0000 N   0  0  0  0  0  0  0  0  0  0  0  0
    5.0000   -9.5265    0.0000 C   0  0  0  0  0  0  0  0  0  0  0  0
    5.0000   -8.7024    0.0000 C   0  0  0  0  0  0  0  0  0  0  0  0
    7.8512   -7.0603    0.0000 C   0  0  0  0  0  0  0  0  0  0  0  0
    7.8515   -6.2369    0.0000 C   0  0  0  0  0  0  0  0  0  0  0  0
    7.1373   -5.8241    0.0000 C   0  0  0  0  0  0  0  0  0  0  0  0
    6.4212   -6.2405    0.0000 C   0  0  0  0  0  0  0  0  0  0  0  0
    6.4244   -7.0625    0.0000 C   0  0  0  0  0  0  0  0  0  0  0  0
    7.1362   -5.0000    0.0000 O   0  0  0  0  0  0  0  0  0  0  0  0
    9.9889   -9.9414    0.0000 C   0  0  0  0  0  0  0  0  0  0  0  0
   10.7018   -9.5280    0.0000 F   0  0  0  0  0  0  0  0  0  0  0  0
    9.9904  -10.7655    0.0000 F   0  0  0  0  0  0  0  0  0  0  0  0
    9.7741   -9.1458    0.0000 F   0  0  0  0  0  0  0  0  0  0  0  0
  8 21  1  0  0  0  0
 21 22  1  0  0  0  0
 21 23  1  0  0  0  0
 21 24  1  0  0  0  0
  2  1  1  0  0  0  0
  2 15  1  0  0  0  0
  3  1  1  0  0  0  0
 15 16  1  0  0  0  0
  4  1  1  0  0  0  0
 16 17  1  0  0  0  0
  5 11  2  0  0  0  0
 17 18  1  0  0  0  0
  6  4  2  0  0  0  0
 18 19  1  0  0  0  0
 19  2  1  0  0  0  0
  7  4  1  0  0  0  0
  8 10  1  0  0  0  0
  9  6  1  0  0  0  0
 10  7  2  0  0  0  0
 17 20  1  0  0  0  0
 11  3  1  0  0  0  0
 12  3  2  0  0  0  0
 13 14  2  0  0  0  0
 14 12  1  0  0  0  0
  8  9  2  0  0  0  0
  5 13  1  0  0  0  0
M  END
> <Molecule Name>
DNDI1392071

> <CDD Number>
CDD-1535335

> <IC50_uM>
6.52 (n=1)

$$$$

SketchEl molfile

 26 28  0  0  0  0  0  0  0  0999 V2000
    7.1353   -8.7078    0.0000 C   0  0  0  0  0  0  0  0  0  0  0  0
    7.1353   -7.8837    0.0000 N   0  0  0  0  0  0  0  0  0  0  0  0
    6.4235   -9.1199    0.0000 C   0  0  0  0  0  0  0  0  0  0  0  0
    7.8513   -9.1199    0.0000 C   0  0  0  0  0  0  0  0  0  0  0  0
    5.7159  -10.3520    0.0000 N   0  0  0  0  0  0  0  0  0  0  0  0
    7.8471   -9.9441    0.0000 C   0  0  0  0  0  0  0  0  0  0  0  0
    8.5339   -8.6745    0.0000 C   0  0  0  0  0  0  0  0  0  0  0  0
    9.2748   -9.9441    0.0000 C   0  0  0  0  0  0  0  0  0  0  0  0
    8.5589  -10.3562    0.0000 C   0  0  0  0  0  0  0  0  0  0  0  0
    9.2706   -9.1158    0.0000 C   0  0  0  0  0  0  0  0  0  0  0  0
    6.4277   -9.9399    0.0000 C   0  0  0  0  0  0  0  0  0  0  0  0
    5.7118   -8.7037    0.0000 N   0  0  0  0  0  0  0  0  0  0  0  0
    5.0000   -9.9399    0.0000 C   0  0  0  0  0  0  0  0  0  0  0  0
    5.0000   -9.1158    0.0000 C   0  0  0  0  0  0  0  0  0  0  0  0
    7.8514   -7.4735    0.0000 C   0  0  0  0  0  0  0  0  0  0  0  0
    7.8517   -6.6501    0.0000 C   0  0  0  0  0  0  0  0  0  0  0  0
    7.1374   -6.2372    0.0000 C   0  0  0  0  0  0  0  0  0  0  0  0
    6.4213   -6.6537    0.0000 C   0  0  0  0  0  0  0  0  0  0  0  0
    6.4245   -7.4757    0.0000 C   0  0  0  0  0  0  0  0  0  0  0  0
    7.1364   -5.4130    0.0000 C   0  0  0  0  0  0  0  0  0  0  0  0
    7.8495   -5.0000    0.0000 N   0  0  0  0  0  0  0  0  0  0  0  0
    6.4221   -5.0019    0.0000 O   0  0  0  0  0  0  0  0  0  0  0  0
    9.9893  -10.3548    0.0000 C   0  0  0  0  0  0  0  0  0  0  0  0
   10.7023   -9.9414    0.0000 F   0  0  0  0  0  0  0  0  0  0  0  0
    9.9908  -11.1790    0.0000 F   0  0  0  0  0  0  0  0  0  0  0  0
    9.7745   -9.5592    0.0000 F   0  0  0  0  0  0  0  0  0  0  0  0
  8 23  1  0  0  0  0
 23 24  1  0  0  0  0
 23 25  1  0  0  0  0
 23 26  1  0  0  0  0
  6  4  2  0  0  0  0
 18 19  1  0  0  0  0
 19  2  1  0  0  0  0
  7  4  1  0  0  0  0
  8 10  1  0  0  0  0
  9  6  1  0  0  0  0
 10  7  2  0  0  0  0
 17 20  1  0  0  0  0
 11  3  1  0  0  0  0
 12  3  2  0  0  0  0
 13 14  2  0  0  0  0
 14 12  1  0  0  0  0
  8  9  2  0  0  0  0
  5 13  1  0  0  0  0
 20 21  1  0  0  0  0
  2  1  1  0  0  0  0
 20 22  2  0  0  0  0
  2 15  1  0  0  0  0
  3  1  1  0  0  0  0
 15 16  1  0  0  0  0
  4  1  1  0  0  0  0
 16 17  1  0  0  0  0
  5 11  2  0  0  0  0
 17 18  1  0  0  0  0
M  END
> <Molecule Name>
DNDI1392072

> <CDD Number>
CDD-1535336

> <IC50_uM>
6.41 (n=1)

$$$$

SketchEl molfile

 25 27  0  0  0  0  0  0  0  0999 V2000
    7.1354   -8.7022    0.0000 C   0  0  0  0  0  0  0  0  0  0  0  0
    7.1354   -7.8780    0.0000 N   0  0  0  0  0  0  0  0  0  0  0  0
    6.4236   -9.1143    0.0000 C   0  0  0  0  0  0  0  0  0  0  0  0
    7.8513   -9.1143    0.0000 C   0  0  0  0  0  0  0  0  0  0  0  0
    5.7160  -10.3464    0.0000 N   0  0  0  0  0  0  0  0  0  0  0  0
    7.8472   -9.9385    0.0000 C   0  0  0  0  0  0  0  0  0  0  0  0
    8.5340   -8.6689    0.0000 C   0  0  0  0  0  0  0  0  0  0  0  0
    9.2749   -9.9385    0.0000 C   0  0  0  0  0  0  0  0  0  0  0  0
    8.5590  -10.3505    0.0000 C   0  0  0  0  0  0  0  0  0  0  0  0
    9.2707   -9.1101    0.0000 C   0  0  0  0  0  0  0  0  0  0  0  0
    6.4277   -9.9343    0.0000 C   0  0  0  0  0  0  0  0  0  0  0  0
    5.7118   -8.6980    0.0000 N   0  0  0  0  0  0  0  0  0  0  0  0
    5.0000   -9.9343    0.0000 C   0  0  0  0  0  0  0  0  0  0  0  0
    5.0000   -9.1101    0.0000 C   0  0  0  0  0  0  0  0  0  0  0  0
    7.8515   -7.4678    0.0000 C   0  0  0  0  0  0  0  0  0  0  0  0
    7.8542   -6.6436    0.0000 C   0  0  0  0  0  0  0  0  0  0  0  0
    8.5710   -6.2389    0.0000 C   0  0  0  0  0  0  0  0  0  0  0  0
    8.5757   -5.4184    0.0000 C   0  0  0  0  0  0  0  0  0  0  0  0
    7.8652   -5.0000    0.0000 C   0  0  0  0  0  0  0  0  0  0  0  0
    7.1482   -5.4085    0.0000 C   0  0  0  0  0  0  0  0  0  0  0  0
    7.1418   -6.2353    0.0000 C   0  0  0  0  0  0  0  0  0  0  0  0
    9.9894  -10.3492    0.0000 C   0  0  0  0  0  0  0  0  0  0  0  0
   10.7024   -9.9358    0.0000 F   0  0  0  0  0  0  0  0  0  0  0  0
    9.9910  -11.1734    0.0000 F   0  0  0  0  0  0  0  0  0  0  0  0
    9.7746   -9.5535    0.0000 F   0  0  0  0  0  0  0  0  0  0  0  0
  8 22  1  0  0  0  0
 22 23  1  0  0  0  0
 22 24  1  0  0  0  0
 22 25  1  0  0  0  0
  2  1  1  0  0  0  0
  2 15  1  0  0  0  0
  3  1  1  0  0  0  0
  4  1  1  0  0  0  0
  5 11  2  0  0  0  0
 15 16  1  0  0  0  0
 16 17  1  0  0  0  0
  6  4  2  0  0  0  0
  7  4  1  0  0  0  0
  8 10  1  0  0  0  0
  9  6  1  0  0  0  0
 10  7  2  0  0  0  0
 16 21  1  0  0  0  0
 17 18  1  0  0  0  0
 18 19  1  0  0  0  0
 19 20  1  0  0  0  0
 20 21  1  0  0  0  0
 11  3  1  0  0  0  0
 12  3  2  0  0  0  0
 13 14  2  0  0  0  0
 14 12  1  0  0  0  0
  8  9  2  0  0  0  0
  5 13  1  0  0  0  0
M  END
> <Molecule Name>
DNDI1392073

> <CDD Number>
CDD-1535337

> <IC50_uM>
0.39 (n=1)

$$$$

SketchEl molfile

 28 31  0  0  0  0  0  0  0  0999 V2000
    8.3882   -8.5309    0.0000 C   0  0  0  0  0  0  0  0  0  0  0  0
    8.3882   -7.7059    0.0000 C   0  0  0  0  0  0  0  0  0  0  0  0
    7.6757   -8.9434    0.0000 C   0  0  0  0  0  0  0  0  0  0  0  0
    9.1048   -8.9434    0.0000 C   0  0  0  0  0  0  0  0  0  0  0  0
    6.9673  -10.1767    0.0000 N   0  0  0  0  0  0  0  0  0  0  0  0
    9.1007   -9.7684    0.0000 C   0  0  0  0  0  0  0  0  0  0  0  0
    9.7882   -8.4975    0.0000 C   0  0  0  0  0  0  0  0  0  0  0  0
    9.1548   -8.0642    0.0000 O   0  0  0  0  0  0  0  0  0  0  0  0
   10.5298   -9.7684    0.0000 C   0  0  0  0  0  0  0  0  0  0  0  0
    9.8132  -10.1809    0.0000 C   0  0  0  0  0  0  0  0  0  0  0  0
   10.5257   -8.9392    0.0000 C   0  0  0  0  0  0  0  0  0  0  0  0
    7.6798   -9.7642    0.0000 C   0  0  0  0  0  0  0  0  0  0  0  0
    6.9632   -8.5267    0.0000 C   0  0  0  0  0  0  0  0  0  0  0  0
    6.2507   -9.7642    0.0000 C   0  0  0  0  0  0  0  0  0  0  0  0
    6.2507   -8.9392    0.0000 N   0  0  0  0  0  0  0  0  0  0  0  0
   11.2451  -10.1796    0.0000 Cl  0  0  0  0  0  0  0  0  0  0  0  0
    9.1049   -7.2953    0.0000 C   0  0  0  0  0  0  0  0  0  0  0  0
    9.1053   -6.4710    0.0000 C   0  0  0  0  0  0  0  0  0  0  0  0
    8.3903   -6.0577    0.0000 C   0  0  0  0  0  0  0  0  0  0  0  0
    7.6734   -6.4746    0.0000 C   0  0  0  0  0  0  0  0  0  0  0  0
    7.6766   -7.2975    0.0000 C   0  0  0  0  0  0  0  0  0  0  0  0
    6.9575   -6.0646    0.0000 C   0  0  0  0  0  0  0  0  0  0  0  0
    6.8683   -5.2475    0.0000 O   0  0  0  0  0  0  0  0  0  0  0  0
    6.0607   -5.0788    0.0000 C   0  0  0  0  0  0  0  0  0  0  0  0
    5.6507   -5.7948    0.0000 C   0  0  0  0  0  0  0  0  0  0  0  0
    6.2049   -6.4059    0.0000 N   0  0  0  0  0  0  0  0  0  0  0  0
    5.0930   -6.3299    0.0000 C   0  0  0  0  0  0  0  0  0  0  0  0
    5.0000   -5.3598    0.0000 C   0  0  0  0  0  0  0  0  0  0  0  0
  5 14  1  0  0  0  0
  2  1  1  0  0  0  0
  2 17  2  0  0  0  0
  3  1  1  0  0  0  0
 17 18  1  0  0  0  0
  4  1  1  0  0  0  0
 18 19  2  0  0  0  0
  5 12  2  0  0  0  0
 19 20  1  0  0  0  0
  6  4  2  0  0  0  0
 20 21  2  0  0  0  0
 21  2  1  0  0  0  0
  7  4  1  0  0  0  0
  8  1  1  0  0  0  0
  9 11  1  0  0  0  0
 10  6  1  0  0  0  0
 11  7  2  0  0  0  0
 20 22  1  0  0  0  0
 22 23  1  0  0  0  0
 12  3  1  0  0  0  0
 13  3  2  0  0  0  0
  9 16  1  0  0  0  0
 14 15  2  0  0  0  0
 23 24  1  0  0  0  0
 24 25  1  0  0  0  0
 25 26  1  0  0  0  0
 26 22  2  0  0  0  0
 15 13  1  0  0  0  0
 25 27  1  0  0  0  0
  9 10  2  0  0  0  0
 25 28  1  0  0  0  0
M  END
> <Molecule Name>
DNDI1402163

> <CDD Number>
CDD-1535338

> <IC50_uM>
0.5 (n=1)

$$$$

SketchEl molfile

 28 30  0  0  0  0  0  0  0  0999 V2000
    7.1354   -9.5293    0.0000 C   0  0  0  0  0  0  0  0  0  0  0  0
    7.1354   -8.7051    0.0000 N   0  0  0  0  0  0  0  0  0  0  0  0
    6.4236   -9.9414    0.0000 C   0  0  0  0  0  0  0  0  0  0  0  0
    7.8513   -9.9414    0.0000 C   0  0  0  0  0  0  0  0  0  0  0  0
    5.7159  -11.1735    0.0000 N   0  0  0  0  0  0  0  0  0  0  0  0
    7.8471  -10.7656    0.0000 C   0  0  0  0  0  0  0  0  0  0  0  0
    8.5340   -9.4960    0.0000 C   0  0  0  0  0  0  0  0  0  0  0  0
    9.2749  -10.7656    0.0000 C   0  0  0  0  0  0  0  0  0  0  0  0
    8.5589  -11.1776    0.0000 C   0  0  0  0  0  0  0  0  0  0  0  0
    9.2707   -9.9372    0.0000 C   0  0  0  0  0  0  0  0  0  0  0  0
    6.4277  -10.7614    0.0000 C   0  0  0  0  0  0  0  0  0  0  0  0
    5.7118   -9.5251    0.0000 N   0  0  0  0  0  0  0  0  0  0  0  0
    5.0000  -10.7614    0.0000 C   0  0  0  0  0  0  0  0  0  0  0  0
    5.0000   -9.9372    0.0000 C   0  0  0  0  0  0  0  0  0  0  0  0
    7.8509   -8.2943    0.0000 C   0  0  0  0  0  0  0  0  0  0  0  0
    7.8529   -7.4737    0.0000 C   0  0  0  0  0  0  0  0  0  0  0  0
    7.1410   -7.0578    0.0000 C   0  0  0  0  0  0  0  0  0  0  0  0
    6.4254   -7.4686    0.0000 C   0  0  0  0  0  0  0  0  0  0  0  0
    6.4217   -8.2954    0.0000 C   0  0  0  0  0  0  0  0  0  0  0  0
    7.1441   -6.2336    0.0000 C   0  0  0  0  0  0  0  0  0  0  0  0
    7.8594   -5.8242    0.0000 N   0  0  0  0  0  0  0  0  0  0  0  0
    6.4319   -5.8188    0.0000 O   0  0  0  0  0  0  0  0  0  0  0  0
    8.5716   -6.2390    0.0000 C   0  0  0  0  0  0  0  0  0  0  0  0
    7.8625   -5.0000    0.0000 C   0  0  0  0  0  0  0  0  0  0  0  0
    9.9894  -11.1763    0.0000 C   0  0  0  0  0  0  0  0  0  0  0  0
   10.7024  -10.7629    0.0000 F   0  0  0  0  0  0  0  0  0  0  0  0
    9.9909  -12.0005    0.0000 F   0  0  0  0  0  0  0  0  0  0  0  0
    9.7746  -10.3806    0.0000 F   0  0  0  0  0  0  0  0  0  0  0  0
  8 25  1  0  0  0  0
 25 26  1  0  0  0  0
 25 27  1  0  0  0  0
 25 28  1  0  0  0  0
  2 15  1  0  0  0  0
  2  1  1  0  0  0  0
  3  1  1  0  0  0  0
  4  1  1  0  0  0  0
  5 11  2  0  0  0  0
  2 19  1  0  0  0  0
 15 16  1  0  0  0  0
 16 17  1  0  0  0  0
 17 18  1  0  0  0  0
 18 19  1  0  0  0  0
  6  4  2  0  0  0  0
 17 20  1  0  0  0  0
  7  4  1  0  0  0  0
 20 21  1  0  0  0  0
  8 10  1  0  0  0  0
 20 22  2  0  0  0  0
  9  6  1  0  0  0  0
 21 23  1  0  0  0  0
 10  7  2  0  0  0  0
 21 24  1  0  0  0  0
 11  3  1  0  0  0  0
 12  3  2  0  0  0  0
 13 14  2  0  0  0  0
 14 12  1  0  0  0  0
  8  9  2  0  0  0  0
  5 13  1  0  0  0  0
M  END
> <Molecule Name>
DNDI1402164

> <CDD Number>
CDD-1535339

> <IC50_uM>
1.01 (n=1)

$$$$

SketchEl molfile

 31 34  0  0  0  0  0  0  0  0999 V2000
    7.1358   -9.9423    0.0000 C   0  0  0  0  0  0  0  0  0  0  0  0
    7.1358   -9.1180    0.0000 N   0  0  0  0  0  0  0  0  0  0  0  0
    6.4238  -10.3545    0.0000 C   0  0  0  0  0  0  0  0  0  0  0  0
    7.8519  -10.3545    0.0000 C   0  0  0  0  0  0  0  0  0  0  0  0
    5.7161  -11.5868    0.0000 N   0  0  0  0  0  0  0  0  0  0  0  0
    7.8477  -11.1788    0.0000 C   0  0  0  0  0  0  0  0  0  0  0  0
    8.5346   -9.9090    0.0000 C   0  0  0  0  0  0  0  0  0  0  0  0
    9.2757  -11.1788    0.0000 C   0  0  0  0  0  0  0  0  0  0  0  0
    8.5596  -11.5910    0.0000 C   0  0  0  0  0  0  0  0  0  0  0  0
    9.2715  -10.3503    0.0000 C   0  0  0  0  0  0  0  0  0  0  0  0
    6.4280  -11.1747    0.0000 C   0  0  0  0  0  0  0  0  0  0  0  0
    5.7119   -9.9382    0.0000 N   0  0  0  0  0  0  0  0  0  0  0  0
    5.0000  -11.1747    0.0000 C   0  0  0  0  0  0  0  0  0  0  0  0
    5.0000  -10.3503    0.0000 C   0  0  0  0  0  0  0  0  0  0  0  0
    7.8515   -8.7071    0.0000 C   0  0  0  0  0  0  0  0  0  0  0  0
    7.8534   -7.8863    0.0000 C   0  0  0  0  0  0  0  0  0  0  0  0
    7.1414   -7.4703    0.0000 N   0  0  0  0  0  0  0  0  0  0  0  0
    6.4257   -7.8812    0.0000 C   0  0  0  0  0  0  0  0  0  0  0  0
    6.4220   -8.7082    0.0000 C   0  0  0  0  0  0  0  0  0  0  0  0
    7.1445   -6.6460    0.0000 C   0  0  0  0  0  0  0  0  0  0  0  0
    7.8616   -6.2392    0.0000 C   0  0  0  0  0  0  0  0  0  0  0  0
    7.8651   -5.4157    0.0000 C   0  0  0  0  0  0  0  0  0  0  0  0
    7.1522   -5.0000    0.0000 C   0  0  0  0  0  0  0  0  0  0  0  0
    6.4344   -5.4139    0.0000 C   0  0  0  0  0  0  0  0  0  0  0  0
    6.4345   -6.2361    0.0000 C   0  0  0  0  0  0  0  0  0  0  0  0
    8.5731   -6.6556    0.0000 O   0  0  0  0  0  0  0  0  0  0  0  0
    8.5682   -7.4800    0.0000 C   0  0  0  0  0  0  0  0  0  0  0  0
    9.9904  -11.5897    0.0000 C   0  0  0  0  0  0  0  0  0  0  0  0
   10.7035  -11.1762    0.0000 F   0  0  0  0  0  0  0  0  0  0  0  0
    9.9919  -12.4140    0.0000 F   0  0  0  0  0  0  0  0  0  0  0  0
    9.7755  -10.7938    0.0000 F   0  0  0  0  0  0  0  0  0  0  0  0
  8 28  1  0  0  0  0
 28 29  1  0  0  0  0
 28 30  1  0  0  0  0
 28 31  1  0  0  0  0
  8 10  1  0  0  0  0
  9  6  1  0  0  0  0
 10  7  2  0  0  0  0
 11  3  1  0  0  0  0
 12  3  2  0  0  0  0
 13 14  2  0  0  0  0
 14 12  1  0  0  0  0
  8  9  2  0  0  0  0
  5 13  1  0  0  0  0
 20 21  2  0  0  0  0
  2 15  1  0  0  0  0
 21 22  1  0  0  0  0
  2  1  1  0  0  0  0
 22 23  2  0  0  0  0
  3  1  1  0  0  0  0
 23 24  1  0  0  0  0
  4  1  1  0  0  0  0
 24 25  2  0  0  0  0
 25 20  1  0  0  0  0
  5 11  2  0  0  0  0
 21 26  1  0  0  0  0
  2 19  1  0  0  0  0
 26 27  1  0  0  0  0
 15 16  1  0  0  0  0
 16 17  1  0  0  0  0
 17 18  1  0  0  0  0
 18 19  1  0  0  0  0
  6  4  2  0  0  0  0
 17 20  1  0  0  0  0
  7  4  1  0  0  0  0
M  END
> <Molecule Name>
DNDI1402165

> <CDD Number>
CDD-1535340

> <IC50_uM>
0.24 (n=1)

$$$$

SketchEl molfile

 25 27  0  0  0  0  0  0  0  0999 V2000
    7.1352   -8.7041    0.0000 C   0  0  0  0  0  0  0  0  0  0  0  0
    7.1352   -7.8800    0.0000 N   0  0  0  0  0  0  0  0  0  0  0  0
    6.4235   -9.1162    0.0000 C   0  0  0  0  0  0  0  0  0  0  0  0
    7.8511   -9.1162    0.0000 C   0  0  0  0  0  0  0  0  0  0  0  0
    5.7159  -10.3482    0.0000 N   0  0  0  0  0  0  0  0  0  0  0  0
    7.8470   -9.9403    0.0000 C   0  0  0  0  0  0  0  0  0  0  0  0
    8.5338   -8.6708    0.0000 C   0  0  0  0  0  0  0  0  0  0  0  0
    9.2746   -9.9403    0.0000 C   0  0  0  0  0  0  0  0  0  0  0  0
    8.5587  -10.3524    0.0000 C   0  0  0  0  0  0  0  0  0  0  0  0
    9.2705   -9.1120    0.0000 C   0  0  0  0  0  0  0  0  0  0  0  0
    6.4277   -9.9362    0.0000 C   0  0  0  0  0  0  0  0  0  0  0  0
    5.7117   -8.7000    0.0000 C   0  0  0  0  0  0  0  0  0  0  0  0
    5.0000   -9.9362    0.0000 C   0  0  0  0  0  0  0  0  0  0  0  0
    5.0000   -9.1120    0.0000 C   0  0  0  0  0  0  0  0  0  0  0  0
    7.8508   -7.4692    0.0000 C   0  0  0  0  0  0  0  0  0  0  0  0
    7.8527   -6.6451    0.0000 C   0  0  0  0  0  0  0  0  0  0  0  0
    8.5690   -6.2382    0.0000 C   0  0  0  0  0  0  0  0  0  0  0  0
    8.5729   -5.4176    0.0000 C   0  0  0  0  0  0  0  0  0  0  0  0
    7.8620   -5.0000    0.0000 C   0  0  0  0  0  0  0  0  0  0  0  0
    7.1455   -5.4091    0.0000 C   0  0  0  0  0  0  0  0  0  0  0  0
    7.1399   -6.2359    0.0000 C   0  0  0  0  0  0  0  0  0  0  0  0
    9.9891  -10.3511    0.0000 C   0  0  0  0  0  0  0  0  0  0  0  0
   10.7021   -9.9377    0.0000 F   0  0  0  0  0  0  0  0  0  0  0  0
    9.9906  -11.1752    0.0000 F   0  0  0  0  0  0  0  0  0  0  0  0
    9.7743   -9.5554    0.0000 F   0  0  0  0  0  0  0  0  0  0  0  0
  8 22  1  0  0  0  0
 22 23  1  0  0  0  0
 22 24  1  0  0  0  0
 22 25  1  0  0  0  0
  3  1  1  0  0  0  0
  4  1  1  0  0  0  0
  5 11  2  0  0  0  0
  6  4  2  0  0  0  0
  7  4  1  0  0  0  0
 15 16  1  0  0  0  0
 16 17  1  0  0  0  0
  8 10  1  0  0  0  0
  9  6  1  0  0  0  0
 10  7  2  0  0  0  0
 11  3  1  0  0  0  0
 12  3  2  0  0  0  0
 16 21  1  0  0  0  0
 17 18  1  0  0  0  0
 18 19  1  0  0  0  0
 19 20  1  0  0  0  0
 20 21  1  0  0  0  0
 13 14  2  0  0  0  0
 14 12  1  0  0  0  0
  8  9  2  0  0  0  0
  5 13  1  0  0  0  0
  2 15  1  0  0  0  0
  2  1  1  0  0  0  0
M  END
> <Molecule Name>
DNDI1402166

> <CDD Number>
CDD-1535341

> <IC50_uM>
0.11 (n=1)

$$$$

SketchEl molfile

 26 28  0  0  0  0  0  0  0  0999 V2000
    7.1353   -8.7042    0.0000 C   0  0  0  0  0  0  0  0  0  0  0  0
    7.1353   -7.8801    0.0000 N   0  0  0  0  0  0  0  0  0  0  0  0
    6.4235   -9.1163    0.0000 C   0  0  0  0  0  0  0  0  0  0  0  0
    7.8513   -9.1163    0.0000 C   0  0  0  0  0  0  0  0  0  0  0  0
    5.7159  -10.3484    0.0000 N   0  0  0  0  0  0  0  0  0  0  0  0
    7.8471   -9.9405    0.0000 C   0  0  0  0  0  0  0  0  0  0  0  0
    8.5339   -8.6710    0.0000 C   0  0  0  0  0  0  0  0  0  0  0  0
    9.2748   -9.9405    0.0000 C   0  0  0  0  0  0  0  0  0  0  0  0
    8.5589  -10.3526    0.0000 C   0  0  0  0  0  0  0  0  0  0  0  0
    9.2706   -9.1122    0.0000 C   0  0  0  0  0  0  0  0  0  0  0  0
    6.4277   -9.9363    0.0000 C   0  0  0  0  0  0  0  0  0  0  0  0
    5.7118   -8.7001    0.0000 N   0  0  0  0  0  0  0  0  0  0  0  0
    5.0000   -9.9363    0.0000 C   0  0  0  0  0  0  0  0  0  0  0  0
    5.0000   -9.1122    0.0000 C   0  0  0  0  0  0  0  0  0  0  0  0
    7.8509   -7.4692    0.0000 C   0  0  0  0  0  0  0  0  0  0  0  0
    7.8529   -6.6451    0.0000 C   0  0  0  0  0  0  0  0  0  0  0  0
    8.5691   -6.2382    0.0000 C   0  0  0  0  0  0  0  0  0  0  0  0
    8.5730   -5.4176    0.0000 C   0  0  0  0  0  0  0  0  0  0  0  0
    7.8621   -5.0000    0.0000 C   0  0  0  0  0  0  0  0  0  0  0  0
    7.1456   -5.4091    0.0000 C   0  0  0  0  0  0  0  0  0  0  0  0
    7.1399   -6.2359    0.0000 C   0  0  0  0  0  0  0  0  0  0  0  0
    6.4221   -7.4672    0.0000 C   0  0  0  0  0  0  0  0  0  0  0  0
    9.9893  -10.3512    0.0000 C   0  0  0  0  0  0  0  0  0  0  0  0
   10.7023   -9.9378    0.0000 F   0  0  0  0  0  0  0  0  0  0  0  0
    9.9908  -11.1754    0.0000 F   0  0  0  0  0  0  0  0  0  0  0  0
    9.7745   -9.5556    0.0000 F   0  0  0  0  0  0  0  0  0  0  0  0
  8 23  1  0  0  0  0
 23 24  1  0  0  0  0
 23 25  1  0  0  0  0
 23 26  1  0  0  0  0
  8 10  1  0  0  0  0
  9  6  1  0  0  0  0
 10  7  2  0  0  0  0
 11  3  1  0  0  0  0
 12  3  2  0  0  0  0
 16 21  1  0  0  0  0
 17 18  1  0  0  0  0
 18 19  1  0  0  0  0
 19 20  1  0  0  0  0
 20 21  1  0  0  0  0
 13 14  2  0  0  0  0
 14 12  1  0  0  0  0
  8  9  2  0  0  0  0
  5 13  1  0  0  0  0
  2 15  1  0  0  0  0
  2  1  1  0  0  0  0
  2 22  1  0  0  0  0
  3  1  1  0  0  0  0
  4  1  1  0  0  0  0
  5 11  2  0  0  0  0
  6  4  2  0  0  0  0
  7  4  1  0  0  0  0
 15 16  1  0  0  0  0
 16 17  1  0  0  0  0
M  END
> <Molecule Name>
DNDI1402167

> <CDD Number>
CDD-1535342

> <IC50_uM>
0.48 (n=1)

$$$$

SketchEl molfile

 26 28  0  0  0  0  0  0  0  0999 V2000
    5.7414   -8.7501    0.0000 C   0  0  0  0  0  0  0  0  0  0  0  0
    5.7402   -9.5774    0.0000 C   0  0  0  0  0  0  0  0  0  0  0  0
    6.4550   -9.9903    0.0000 N   0  0  0  0  0  0  0  0  0  0  0  0
    7.1715   -9.5769    0.0000 C   0  0  0  0  0  0  0  0  0  0  0  0
    7.1686   -8.7464    0.0000 C   0  0  0  0  0  0  0  0  0  0  0  0
    6.4532   -8.3373    0.0000 C   0  0  0  0  0  0  0  0  0  0  0  0
    7.8815   -8.3312    0.0000 C   0  0  0  0  0  0  0  0  0  0  0  0
    8.5975   -8.7410    0.0000 C   0  0  0  0  0  0  0  0  0  0  0  0
    7.8784   -7.5062    0.0000 C   0  0  0  0  0  0  0  0  0  0  0  0
    8.5434   -7.0223    0.0000 C   0  0  0  0  0  0  0  0  0  0  0  0
    8.2855   -6.2386    0.0000 N   0  0  0  0  0  0  0  0  0  0  0  0
    7.4604   -6.2417    0.0000 C   0  0  0  0  0  0  0  0  0  0  0  0
    7.2086   -7.0273    0.0000 S   0  0  0  0  0  0  0  0  0  0  0  0
    8.5973   -9.5637    0.0000 C   0  0  0  0  0  0  0  0  0  0  0  0
    9.3125   -9.9734    0.0000 C   0  0  0  0  0  0  0  0  0  0  0  0
   10.0264   -9.5582    0.0000 C   0  0  0  0  0  0  0  0  0  0  0  0
   10.0206   -8.7289    0.0000 C   0  0  0  0  0  0  0  0  0  0  0  0
    9.3048   -8.3229    0.0000 C   0  0  0  0  0  0  0  0  0  0  0  0
   10.7429   -9.9670    0.0000 Cl  0  0  0  0  0  0  0  0  0  0  0  0
    8.4627   -7.7457    0.0000 O   0  0  0  0  0  0  0  0  0  0  0  0
    6.9729   -5.5761    0.0000 N   0  0  0  0  0  0  0  0  0  0  0  0
    6.1528   -5.6655    0.0000 C   0  0  0  0  0  0  0  0  0  0  0  0
    5.6653   -5.0000    0.0000 O   0  0  0  0  0  0  0  0  0  0  0  0
    5.8201   -6.4205    0.0000 C   0  0  0  0  0  0  0  0  0  0  0  0
    5.0000   -6.5099    0.0000 C   0  0  0  0  0  0  0  0  0  0  0  0
    6.3076   -7.0861    0.0000 C   0  0  0  0  0  0  0  0  0  0  0  0
  1  2  2  0  0  0  0
  2  3  1  0  0  0  0
  3  4  2  0  0  0  0
  4  5  1  0  0  0  0
  5  6  2  0  0  0  0
  6  1  1  0  0  0  0
  5  7  1  0  0  0  0
  7  8  1  0  0  0  0
  7  9  1  0  0  0  0
  9 10  2  0  0  0  0
 10 11  1  0  0  0  0
 11 12  2  0  0  0  0
 12 13  1  0  0  0  0
 13  9  1  0  0  0  0
  8 14  2  0  0  0  0
 14 15  1  0  0  0  0
 15 16  2  0  0  0  0
 16 17  1  0  0  0  0
 17 18  2  0  0  0  0
 18  8  1  0  0  0  0
 16 19  1  0  0  0  0
  7 20  1  0  0  0  0
 12 21  1  0  0  0  0
 21 22  1  0  0  0  0
 22 23  2  0  0  0  0
 22 24  1  0  0  0  0
 24 25  1  0  0  0  0
 24 26  1  0  0  0  0
M  END
> <Molecule Name>
DNDI1402168

> <CDD Number>
CDD-1535343

> <IC50_uM>
0.017 (n=1)

$$$$

SketchEl molfile

 20 21  0  0  0  0  0  0  0  0999 V2000
    5.0012   -7.4834    0.0000 C   0  0  0  0  0  0  0  0  0  0  0  0
    5.0000   -8.3106    0.0000 C   0  0  0  0  0  0  0  0  0  0  0  0
    5.7146   -8.7234    0.0000 N   0  0  0  0  0  0  0  0  0  0  0  0
    6.4309   -8.3101    0.0000 C   0  0  0  0  0  0  0  0  0  0  0  0
    6.4281   -7.4798    0.0000 C   0  0  0  0  0  0  0  0  0  0  0  0
    5.7128   -7.0708    0.0000 N   0  0  0  0  0  0  0  0  0  0  0  0
    7.1408   -7.0647    0.0000 C   0  0  0  0  0  0  0  0  0  0  0  0
    7.8567   -7.4744    0.0000 C   0  0  0  0  0  0  0  0  0  0  0  0
    7.1377   -6.2399    0.0000 N   0  0  0  0  0  0  0  0  0  0  0  0
    7.8564   -8.2969    0.0000 C   0  0  0  0  0  0  0  0  0  0  0  0
    8.5714   -8.7065    0.0000 C   0  0  0  0  0  0  0  0  0  0  0  0
    9.2852   -8.2913    0.0000 C   0  0  0  0  0  0  0  0  0  0  0  0
    9.2794   -7.4623    0.0000 C   0  0  0  0  0  0  0  0  0  0  0  0
    8.5638   -7.0564    0.0000 C   0  0  0  0  0  0  0  0  0  0  0  0
    7.8504   -5.8248    0.0000 O   0  0  0  0  0  0  0  0  0  0  0  0
    7.8473   -5.0000    0.0000 C   0  0  0  0  0  0  0  0  0  0  0  0
   10.0015   -8.7001    0.0000 C   0  0  0  0  0  0  0  0  0  0  0  0
   10.0058   -9.5249    0.0000 F   0  0  0  0  0  0  0  0  0  0  0  0
   10.7137   -8.2841    0.0000 F   0  0  0  0  0  0  0  0  0  0  0  0
    9.4213   -9.2863    0.0000 F   0  0  0  0  0  0  0  0  0  0  0  0
 12 17  1  0  0  0  0
 17 18  1  0  0  0  0
 17 19  1  0  0  0  0
 17 20  1  0  0  0  0
  5  6  2  0  0  0  0
 11 12  2  0  0  0  0
  6  1  1  0  0  0  0
 12 13  1  0  0  0  0
  1  2  2  0  0  0  0
 13 14  2  0  0  0  0
 14  8  1  0  0  0  0
  5  7  1  0  0  0  0
  9 15  1  0  0  0  0
  3  4  2  0  0  0  0
 15 16  1  0  0  0  0
  7  8  1  0  0  0  0
  7  9  2  0  0  0  0
  4  5  1  0  0  0  0
  8 10  2  0  0  0  0
  2  3  1  0  0  0  0
 10 11  1  0  0  0  0
M  END
> <Molecule Name>
DNDI1411763

> <CDD Number>
CDD-1535344

> <IC50_uM>
> 1.0 (n=1)

$$$$

SketchEl molfile

 23 25  0  0  0  0  0  0  0  0999 V2000
    5.0012   -8.1982    0.0000 C   0  0  0  0  0  0  0  0  0  0  0  0
    5.0000   -9.0255    0.0000 C   0  0  0  0  0  0  0  0  0  0  0  0
    5.7148   -9.4383    0.0000 N   0  0  0  0  0  0  0  0  0  0  0  0
    6.4312   -9.0250    0.0000 C   0  0  0  0  0  0  0  0  0  0  0  0
    6.4283   -8.1945    0.0000 C   0  0  0  0  0  0  0  0  0  0  0  0
    5.7130   -7.7854    0.0000 N   0  0  0  0  0  0  0  0  0  0  0  0
    7.1412   -7.7794    0.0000 C   0  0  0  0  0  0  0  0  0  0  0  0
    7.8572   -8.1892    0.0000 C   0  0  0  0  0  0  0  0  0  0  0  0
    7.1381   -6.9544    0.0000 N   0  0  0  0  0  0  0  0  0  0  0  0
    7.8569   -9.0117    0.0000 C   0  0  0  0  0  0  0  0  0  0  0  0
    8.5720   -9.4215    0.0000 C   0  0  0  0  0  0  0  0  0  0  0  0
    9.2859   -9.0062    0.0000 C   0  0  0  0  0  0  0  0  0  0  0  0
    9.2801   -8.1770    0.0000 C   0  0  0  0  0  0  0  0  0  0  0  0
    8.5644   -7.7711    0.0000 C   0  0  0  0  0  0  0  0  0  0  0  0
    7.8509   -6.5393    0.0000 C   0  0  0  0  0  0  0  0  0  0  0  0
    7.8478   -5.7143    0.0000 C   0  0  0  0  0  0  0  0  0  0  0  0
    8.5669   -6.9490    0.0000 O   0  0  0  0  0  0  0  0  0  0  0  0
    8.2523   -5.0000    0.0000 C   0  0  0  0  0  0  0  0  0  0  0  0
    7.4273   -5.0031    0.0000 C   0  0  0  0  0  0  0  0  0  0  0  0
   10.0024   -9.4151    0.0000 C   0  0  0  0  0  0  0  0  0  0  0  0
   10.0066  -10.2400    0.0000 F   0  0  0  0  0  0  0  0  0  0  0  0
   10.7147   -8.9989    0.0000 F   0  0  0  0  0  0  0  0  0  0  0  0
    9.4221  -10.0014    0.0000 F   0  0  0  0  0  0  0  0  0  0  0  0
 12 20  1  0  0  0  0
 20 21  1  0  0  0  0
 20 22  1  0  0  0  0
 20 23  1  0  0  0  0
  7  9  1  0  0  0  0
  4  5  1  0  0  0  0
  8 10  2  0  0  0  0
  2  3  1  0  0  0  0
 10 11  1  0  0  0  0
  9 15  1  0  0  0  0
  5  6  2  0  0  0  0
 15 16  1  0  0  0  0
 11 12  2  0  0  0  0
 15 17  2  0  0  0  0
 18 16  1  0  0  0  0
 19 18  1  0  0  0  0
 16 19  1  0  0  0  0
  6  1  1  0  0  0  0
 12 13  1  0  0  0  0
  1  2  2  0  0  0  0
 13 14  2  0  0  0  0
 14  8  1  0  0  0  0
  5  7  1  0  0  0  0
  3  4  2  0  0  0  0
  7  8  1  0  0  0  0
M  END
> <Molecule Name>
DNDI1411764

> <CDD Number>
CDD-1535345

> <IC50_uM>
> 10.0 (n=1)

$$$$

SketchEl molfile

 23 24  0  0  0  0  0  0  0  0999 V2000
    5.0012   -7.8986    0.0000 C   0  0  0  0  0  0  0  0  0  0  0  0
    5.0000   -8.7258    0.0000 C   0  0  0  0  0  0  0  0  0  0  0  0
    5.7147   -9.1386    0.0000 N   0  0  0  0  0  0  0  0  0  0  0  0
    6.4310   -8.7253    0.0000 C   0  0  0  0  0  0  0  0  0  0  0  0
    6.4281   -7.8949    0.0000 C   0  0  0  0  0  0  0  0  0  0  0  0
    5.7129   -7.4859    0.0000 N   0  0  0  0  0  0  0  0  0  0  0  0
    7.1409   -7.4798    0.0000 C   0  0  0  0  0  0  0  0  0  0  0  0
    7.8567   -7.8896    0.0000 C   0  0  0  0  0  0  0  0  0  0  0  0
    7.1378   -6.6550    0.0000 N   0  0  0  0  0  0  0  0  0  0  0  0
    7.8565   -8.7120    0.0000 C   0  0  0  0  0  0  0  0  0  0  0  0
    8.5715   -9.1217    0.0000 C   0  0  0  0  0  0  0  0  0  0  0  0
    9.2853   -8.7065    0.0000 C   0  0  0  0  0  0  0  0  0  0  0  0
    9.2795   -7.8774    0.0000 C   0  0  0  0  0  0  0  0  0  0  0  0
    8.5639   -7.4715    0.0000 C   0  0  0  0  0  0  0  0  0  0  0  0
    7.8505   -6.2399    0.0000 C   0  0  0  0  0  0  0  0  0  0  0  0
    7.8474   -5.4151    0.0000 C   0  0  0  0  0  0  0  0  0  0  0  0
    8.5664   -6.6496    0.0000 O   0  0  0  0  0  0  0  0  0  0  0  0
    8.5602   -5.0000    0.0000 C   0  0  0  0  0  0  0  0  0  0  0  0
    7.1315   -5.0054    0.0000 C   0  0  0  0  0  0  0  0  0  0  0  0
   10.0017   -9.1153    0.0000 C   0  0  0  0  0  0  0  0  0  0  0  0
   10.0059   -9.9401    0.0000 F   0  0  0  0  0  0  0  0  0  0  0  0
   10.7139   -8.6992    0.0000 F   0  0  0  0  0  0  0  0  0  0  0  0
    9.4214   -9.7015    0.0000 F   0  0  0  0  0  0  0  0  0  0  0  0
 12 20  1  0  0  0  0
 20 21  1  0  0  0  0
 20 22  1  0  0  0  0
 20 23  1  0  0  0  0
 11 12  2  0  0  0  0
 15 17  2  0  0  0  0
  6  1  1  0  0  0  0
 12 13  1  0  0  0  0
  1  2  2  0  0  0  0
 13 14  2  0  0  0  0
 14  8  1  0  0  0  0
  5  7  1  0  0  0  0
  3  4  2  0  0  0  0
  7  8  1  0  0  0  0
 16 18  1  0  0  0  0
  7  9  1  0  0  0  0
 16 19  1  0  0  0  0
  4  5  1  0  0  0  0
  8 10  2  0  0  0  0
  2  3  1  0  0  0  0
 10 11  1  0  0  0  0
  9 15  1  0  0  0  0
  5  6  2  0  0  0  0
 15 16  1  0  0  0  0
M  END
> <Molecule Name>
DNDI1411765

> <CDD Number>
CDD-1535346

> <IC50_uM>
> 10.0 (n=1)

$$$$

SketchEl molfile

 26 28  0  0  0  0  0  0  0  0999 V2000
    5.0012   -9.1278    0.0000 C   0  0  0  0  0  0  0  0  0  0  0  0
    5.0000   -9.9552    0.0000 C   0  0  0  0  0  0  0  0  0  0  0  0
    5.7149  -10.3681    0.0000 N   0  0  0  0  0  0  0  0  0  0  0  0
    6.4313   -9.9548    0.0000 C   0  0  0  0  0  0  0  0  0  0  0  0
    6.4285   -9.1242    0.0000 C   0  0  0  0  0  0  0  0  0  0  0  0
    5.7130   -8.7150    0.0000 N   0  0  0  0  0  0  0  0  0  0  0  0
    7.1414   -8.7090    0.0000 C   0  0  0  0  0  0  0  0  0  0  0  0
    7.8575   -9.1188    0.0000 C   0  0  0  0  0  0  0  0  0  0  0  0
    7.1383   -7.8839    0.0000 N   0  0  0  0  0  0  0  0  0  0  0  0
    7.8572   -9.9415    0.0000 C   0  0  0  0  0  0  0  0  0  0  0  0
    8.5725  -10.3513    0.0000 C   0  0  0  0  0  0  0  0  0  0  0  0
    9.2864   -9.9360    0.0000 C   0  0  0  0  0  0  0  0  0  0  0  0
    9.2806   -9.1067    0.0000 C   0  0  0  0  0  0  0  0  0  0  0  0
    8.5648   -8.7007    0.0000 C   0  0  0  0  0  0  0  0  0  0  0  0
    7.8513   -7.4687    0.0000 C   0  0  0  0  0  0  0  0  0  0  0  0
    7.8482   -6.6437    0.0000 C   0  0  0  0  0  0  0  0  0  0  0  0
    8.5673   -7.8786    0.0000 O   0  0  0  0  0  0  0  0  0  0  0  0
    8.5617   -6.2352    0.0000 C   0  0  0  0  0  0  0  0  0  0  0  0
    8.5606   -5.4137    0.0000 C   0  0  0  0  0  0  0  0  0  0  0  0
    7.8464   -5.0000    0.0000 C   0  0  0  0  0  0  0  0  0  0  0  0
    7.1316   -5.4140    0.0000 C   0  0  0  0  0  0  0  0  0  0  0  0
    7.1310   -6.2417    0.0000 C   0  0  0  0  0  0  0  0  0  0  0  0
   10.0030  -10.3449    0.0000 C   0  0  0  0  0  0  0  0  0  0  0  0
   10.0072  -11.1699    0.0000 F   0  0  0  0  0  0  0  0  0  0  0  0
   10.7154   -9.9287    0.0000 F   0  0  0  0  0  0  0  0  0  0  0  0
    9.4226  -10.9312    0.0000 F   0  0  0  0  0  0  0  0  0  0  0  0
 12 23  1  0  0  0  0
 23 24  1  0  0  0  0
 23 25  1  0  0  0  0
 23 26  1  0  0  0  0
  7  9  1  0  0  0  0
  4  5  1  0  0  0  0
  8 10  2  0  0  0  0
  2  3  1  0  0  0  0
 10 11  1  0  0  0  0
  9 15  1  0  0  0  0
  5  6  2  0  0  0  0
 15 16  1  0  0  0  0
 16 18  1  0  0  0  0
 11 12  2  0  0  0  0
 15 17  2  0  0  0  0
  6  1  1  0  0  0  0
 12 13  1  0  0  0  0
 16 22  1  0  0  0  0
 18 19  1  0  0  0  0
 19 20  1  0  0  0  0
 20 21  1  0  0  0  0
 21 22  1  0  0  0  0
  1  2  2  0  0  0  0
 13 14  2  0  0  0  0
 14  8  1  0  0  0  0
  5  7  1  0  0  0  0
  3  4  2  0  0  0  0
  7  8  1  0  0  0  0
M  END
> <Molecule Name>
DNDI1411766

> <CDD Number>
CDD-1535347

> <IC50_uM>
1.57 (n=1)

$$$$

SketchEl molfile

 24 25  0  0  0  0  0  0  0  0999 V2000
    5.0012   -8.7143    0.0000 C   0  0  0  0  0  0  0  0  0  0  0  0
    5.0000   -9.5418    0.0000 C   0  0  0  0  0  0  0  0  0  0  0  0
    5.7149   -9.9547    0.0000 N   0  0  0  0  0  0  0  0  0  0  0  0
    6.4314   -9.5413    0.0000 C   0  0  0  0  0  0  0  0  0  0  0  0
    6.4286   -8.7107    0.0000 C   0  0  0  0  0  0  0  0  0  0  0  0
    5.7131   -8.3015    0.0000 N   0  0  0  0  0  0  0  0  0  0  0  0
    7.1416   -8.2954    0.0000 C   0  0  0  0  0  0  0  0  0  0  0  0
    7.8577   -8.7053    0.0000 C   0  0  0  0  0  0  0  0  0  0  0  0
    7.1384   -7.4704    0.0000 N   0  0  0  0  0  0  0  0  0  0  0  0
    7.8574   -9.5280    0.0000 C   0  0  0  0  0  0  0  0  0  0  0  0
    8.5727   -9.9378    0.0000 C   0  0  0  0  0  0  0  0  0  0  0  0
    9.2866   -9.5225    0.0000 C   0  0  0  0  0  0  0  0  0  0  0  0
    9.2809   -8.6932    0.0000 C   0  0  0  0  0  0  0  0  0  0  0  0
    8.5650   -8.2871    0.0000 C   0  0  0  0  0  0  0  0  0  0  0  0
    7.8514   -7.0551    0.0000 C   0  0  0  0  0  0  0  0  0  0  0  0
    7.8483   -6.2300    0.0000 C   0  0  0  0  0  0  0  0  0  0  0  0
    8.5675   -7.4650    0.0000 O   0  0  0  0  0  0  0  0  0  0  0  0
    8.5619   -5.8215    0.0000 C   0  0  0  0  0  0  0  0  0  0  0  0
    8.5608   -5.0000    0.0000 C   0  0  0  0  0  0  0  0  0  0  0  0
    9.2760   -6.2348    0.0000 C   0  0  0  0  0  0  0  0  0  0  0  0
   10.0033   -9.9314    0.0000 C   0  0  0  0  0  0  0  0  0  0  0  0
   10.0075  -10.7565    0.0000 F   0  0  0  0  0  0  0  0  0  0  0  0
   10.7157   -9.5152    0.0000 F   0  0  0  0  0  0  0  0  0  0  0  0
    9.4228  -10.5178    0.0000 F   0  0  0  0  0  0  0  0  0  0  0  0
 12 21  1  0  0  0  0
 21 22  1  0  0  0  0
 21 23  1  0  0  0  0
 21 24  1  0  0  0  0
 15 16  1  0  0  0  0
 16 18  1  0  0  0  0
 11 12  2  0  0  0  0
 15 17  2  0  0  0  0
  6  1  1  0  0  0  0
 12 13  1  0  0  0  0
 18 19  1  0  0  0  0
  1  2  2  0  0  0  0
 13 14  2  0  0  0  0
 14  8  1  0  0  0  0
  5  7  1  0  0  0  0
  3  4  2  0  0  0  0
  7  8  1  0  0  0  0
 18 20  1  0  0  0  0
  7  9  1  0  0  0  0
  4  5  1  0  0  0  0
  8 10  2  0  0  0  0
  2  3  1  0  0  0  0
 10 11  1  0  0  0  0
  9 15  1  0  0  0  0
  5  6  2  0  0  0  0
M  END
> <Molecule Name>
DNDI1411767

> <CDD Number>
CDD-1535348

> <IC50_uM>
8.91 (n=1)

$$$$

SketchEl molfile

 21 22  0  0  0  0  0  0  0  0999 V2000
    5.0012   -7.4834    0.0000 C   0  0  0  0  0  0  0  0  0  0  0  0
    5.0000   -8.3106    0.0000 C   0  0  0  0  0  0  0  0  0  0  0  0
    5.7147   -8.7234    0.0000 N   0  0  0  0  0  0  0  0  0  0  0  0
    6.4309   -8.3101    0.0000 C   0  0  0  0  0  0  0  0  0  0  0  0
    6.4281   -7.4798    0.0000 C   0  0  0  0  0  0  0  0  0  0  0  0
    5.7128   -7.0707    0.0000 N   0  0  0  0  0  0  0  0  0  0  0  0
    7.1408   -7.0647    0.0000 C   0  0  0  0  0  0  0  0  0  0  0  0
    7.8567   -7.4744    0.0000 C   0  0  0  0  0  0  0  0  0  0  0  0
    7.1377   -6.2399    0.0000 N   0  0  0  0  0  0  0  0  0  0  0  0
    7.8564   -8.2968    0.0000 C   0  0  0  0  0  0  0  0  0  0  0  0
    8.5715   -8.7065    0.0000 C   0  0  0  0  0  0  0  0  0  0  0  0
    9.2852   -8.2913    0.0000 C   0  0  0  0  0  0  0  0  0  0  0  0
    9.2794   -7.4623    0.0000 C   0  0  0  0  0  0  0  0  0  0  0  0
    8.5638   -7.0564    0.0000 C   0  0  0  0  0  0  0  0  0  0  0  0
    7.8505   -5.8248    0.0000 C   0  0  0  0  0  0  0  0  0  0  0  0
    7.8474   -5.0000    0.0000 O   0  0  0  0  0  0  0  0  0  0  0  0
    8.5663   -6.2345    0.0000 C   0  0  0  0  0  0  0  0  0  0  0  0
   10.0016   -8.7001    0.0000 C   0  0  0  0  0  0  0  0  0  0  0  0
   10.0058   -9.5249    0.0000 F   0  0  0  0  0  0  0  0  0  0  0  0
   10.7138   -8.2841    0.0000 F   0  0  0  0  0  0  0  0  0  0  0  0
    9.4213   -9.2863    0.0000 F   0  0  0  0  0  0  0  0  0  0  0  0
 12 18  1  0  0  0  0
 18 19  1  0  0  0  0
 18 20  1  0  0  0  0
 18 21  1  0  0  0  0
  5  6  2  0  0  0  0
 15 16  2  0  0  0  0
 11 12  2  0  0  0  0
 15 17  1  0  0  0  0
  6  1  1  0  0  0  0
 12 13  1  0  0  0  0
  1  2  2  0  0  0  0
 13 14  2  0  0  0  0
 14  8  1  0  0  0  0
  5  7  1  0  0  0  0
  3  4  2  0  0  0  0
  7  8  1  0  0  0  0
  7  9  1  0  0  0  0
  4  5  1  0  0  0  0
  8 10  2  0  0  0  0
  2  3  1  0  0  0  0
 10 11  1  0  0  0  0
  9 15  1  0  0  0  0
M  END
> <Molecule Name>
DNDI1418011

> <CDD Number>
CDD-1535349

> <IC50_uM>
> 10.0 (n=1)

$$$$

SketchEl molfile

 31 33  0  0  0  0  0  0  0  0999 V2000
    5.0012   -8.7209    0.0000 C   0  0  0  0  0  0  0  0  0  0  0  0
    5.0000   -9.5483    0.0000 C   0  0  0  0  0  0  0  0  0  0  0  0
    5.7148   -9.9612    0.0000 N   0  0  0  0  0  0  0  0  0  0  0  0
    6.4313   -9.5478    0.0000 C   0  0  0  0  0  0  0  0  0  0  0  0
    6.4284   -8.7173    0.0000 C   0  0  0  0  0  0  0  0  0  0  0  0
    5.7130   -8.3081    0.0000 N   0  0  0  0  0  0  0  0  0  0  0  0
    7.1413   -8.3021    0.0000 C   0  0  0  0  0  0  0  0  0  0  0  0
    7.8574   -8.7119    0.0000 C   0  0  0  0  0  0  0  0  0  0  0  0
    7.1382   -7.4771    0.0000 N   0  0  0  0  0  0  0  0  0  0  0  0
    7.8571   -9.5346    0.0000 C   0  0  0  0  0  0  0  0  0  0  0  0
    8.5723   -9.9443    0.0000 C   0  0  0  0  0  0  0  0  0  0  0  0
    9.2862   -9.5290    0.0000 C   0  0  0  0  0  0  0  0  0  0  0  0
    9.2804   -8.6998    0.0000 C   0  0  0  0  0  0  0  0  0  0  0  0
    8.5647   -8.2938    0.0000 C   0  0  0  0  0  0  0  0  0  0  0  0
    7.8512   -7.0619    0.0000 C   0  0  0  0  0  0  0  0  0  0  0  0
    8.5623   -7.4746    0.0000 C   0  0  0  0  0  0  0  0  0  0  0  0
    9.2731   -7.0629    0.0000 C   0  0  0  0  0  0  0  0  0  0  0  0
    9.2742   -6.2375    0.0000 N   0  0  0  0  0  0  0  0  0  0  0  0
    8.5583   -5.8255    0.0000 C   0  0  0  0  0  0  0  0  0  0  0  0
    7.8413   -6.2389    0.0000 C   0  0  0  0  0  0  0  0  0  0  0  0
    9.9887   -5.8250    0.0000 C   0  0  0  0  0  0  0  0  0  0  0  0
   10.7032   -6.2375    0.0000 O   0  0  0  0  0  0  0  0  0  0  0  0
    9.9887   -5.0000    0.0000 O   0  0  0  0  0  0  0  0  0  0  0  0
   11.4177   -5.8250    0.0000 C   0  0  0  0  0  0  0  0  0  0  0  0
   12.1321   -6.2376    0.0000 C   0  0  0  0  0  0  0  0  0  0  0  0
   11.4177   -5.0000    0.0000 C   0  0  0  0  0  0  0  0  0  0  0  0
   11.6312   -6.6220    0.0000 C   0  0  0  0  0  0  0  0  0  0  0  0
   10.0028   -9.9379    0.0000 C   0  0  0  0  0  0  0  0  0  0  0  0
   10.0070  -10.7629    0.0000 F   0  0  0  0  0  0  0  0  0  0  0  0
   10.7152   -9.5218    0.0000 F   0  0  0  0  0  0  0  0  0  0  0  0
    9.4224  -10.5242    0.0000 F   0  0  0  0  0  0  0  0  0  0  0  0
 12 28  1  0  0  0  0
 28 29  1  0  0  0  0
 28 30  1  0  0  0  0
 28 31  1  0  0  0  0
  5  6  2  0  0  0  0
 11 12  2  0  0  0  0
  6  1  1  0  0  0  0
 12 13  1  0  0  0  0
 15 20  1  0  0  0  0
 16 17  1  0  0  0  0
 17 18  1  0  0  0  0
 18 19  1  0  0  0  0
 19 20  1  0  0  0  0
  1  2  2  0  0  0  0
 18 21  1  0  0  0  0
 13 14  2  0  0  0  0
 21 22  1  0  0  0  0
 14  8  1  0  0  0  0
 21 23  2  0  0  0  0
 22 24  1  0  0  0  0
  5  7  1  0  0  0  0
 24 25  1  0  0  0  0
  3  4  2  0  0  0  0
 24 26  1  0  0  0  0
  7  8  1  0  0  0  0
 24 27  1  0  0  0  0
  7  9  1  0  0  0  0
  4  5  1  0  0  0  0
  8 10  2  0  0  0  0
  2  3  1  0  0  0  0
 10 11  1  0  0  0  0
  9 15  1  0  0  0  0
 15 16  1  0  0  0  0
M  END
> <Molecule Name>
DNDI1418012

> <CDD Number>
CDD-1535350

> <IC50_uM>
0.058 (n=1)

$$$$

SketchEl molfile

 31 33  0  0  0  0  0  0  0  0999 V2000
    7.8388   -5.8256    0.0000 C   0  0  0  0  0  0  0  0  0  0  0  0
    8.5535   -6.2378    0.0000 O   0  0  0  0  0  0  0  0  0  0  0  0
    7.8384   -5.0006    0.0000 O   0  0  0  0  0  0  0  0  0  0  0  0
    9.2677   -5.8250    0.0000 C   0  0  0  0  0  0  0  0  0  0  0  0
    9.9824   -6.2372    0.0000 C   0  0  0  0  0  0  0  0  0  0  0  0
    9.2674   -5.0000    0.0000 C   0  0  0  0  0  0  0  0  0  0  0  0
    9.4816   -6.6218    0.0000 C   0  0  0  0  0  0  0  0  0  0  0  0
    7.1382   -8.7106    0.0000 N   0  0  0  0  0  0  0  0  0  0  0  0
    7.8495   -8.2982    0.0000 C   0  0  0  0  0  0  0  0  0  0  0  0
    7.8451   -7.4768    0.0000 C   0  0  0  0  0  0  0  0  0  0  0  0
    7.1293   -7.0660    0.0000 C   0  0  0  0  0  0  0  0  0  0  0  0
    6.4162   -7.4828    0.0000 C   0  0  0  0  0  0  0  0  0  0  0  0
    6.4190   -8.3105    0.0000 C   0  0  0  0  0  0  0  0  0  0  0  0
    5.0012   -9.9544    0.0000 C   0  0  0  0  0  0  0  0  0  0  0  0
    5.0000  -10.7818    0.0000 C   0  0  0  0  0  0  0  0  0  0  0  0
    5.7148  -11.1947    0.0000 N   0  0  0  0  0  0  0  0  0  0  0  0
    6.4313  -10.7813    0.0000 C   0  0  0  0  0  0  0  0  0  0  0  0
    6.4284   -9.9508    0.0000 C   0  0  0  0  0  0  0  0  0  0  0  0
    5.7130   -9.5416    0.0000 N   0  0  0  0  0  0  0  0  0  0  0  0
    7.1413   -9.5356    0.0000 C   0  0  0  0  0  0  0  0  0  0  0  0
    7.8574   -9.9454    0.0000 C   0  0  0  0  0  0  0  0  0  0  0  0
    7.8571  -10.7681    0.0000 C   0  0  0  0  0  0  0  0  0  0  0  0
    8.5723  -11.1778    0.0000 C   0  0  0  0  0  0  0  0  0  0  0  0
    9.2862  -10.7625    0.0000 C   0  0  0  0  0  0  0  0  0  0  0  0
    9.2804   -9.9333    0.0000 C   0  0  0  0  0  0  0  0  0  0  0  0
    8.5647   -9.5273    0.0000 C   0  0  0  0  0  0  0  0  0  0  0  0
    7.1260   -6.2410    0.0000 N   0  0  0  0  0  0  0  0  0  0  0  0
   10.0028  -11.1714    0.0000 C   0  0  0  0  0  0  0  0  0  0  0  0
   10.0070  -11.9964    0.0000 F   0  0  0  0  0  0  0  0  0  0  0  0
   10.7152  -10.7553    0.0000 F   0  0  0  0  0  0  0  0  0  0  0  0
    9.4224  -11.7577    0.0000 F   0  0  0  0  0  0  0  0  0  0  0  0
 24 28  1  0  0  0  0
 28 29  1  0  0  0  0
 28 30  1  0  0  0  0
 28 31  1  0  0  0  0
  9 10  1  0  0  0  0
 10 11  1  0  0  0  0
 11 12  1  0  0  0  0
 12 13  1  0  0  0  0
  8  9  1  0  0  0  0
 18 19  2  0  0  0  0
 23 24  2  0  0  0  0
 19 14  1  0  0  0  0
 24 25  1  0  0  0  0
 14 15  2  0  0  0  0
 25 26  2  0  0  0  0
 26 21  1  0  0  0  0
 18 20  1  0  0  0  0
 16 17  2  0  0  0  0
 20 21  1  0  0  0  0
 17 18  1  0  0  0  0
 21 22  2  0  0  0  0
 15 16  1  0  0  0  0
 22 23  1  0  0  0  0
 20  8  1  0  0  0  0
  4  7  1  0  0  0  0
 11 27  1  0  0  0  0
 27  1  1  0  0  0  0
  1  2  1  0  0  0  0
  1  3  2  0  0  0  0
  2  4  1  0  0  0  0
  4  5  1  0  0  0  0
  4  6  1  0  0  0  0
  8 13  1  0  0  0  0
M  END
> <Molecule Name>
DNDI1418013

> <CDD Number>
CDD-1535351

> <IC50_uM>
0.16 (n=1)

$$$$

SketchEl molfile

 20 21  0  0  0  0  0  0  0  0999 V2000
    7.1377   -6.2345    0.0000 N   0  0  0  0  0  0  0  0  0  0  0  0
    5.0012   -7.4780    0.0000 C   0  0  0  0  0  0  0  0  0  0  0  0
    5.0000   -8.3052    0.0000 C   0  0  0  0  0  0  0  0  0  0  0  0
    5.7146   -8.7180    0.0000 N   0  0  0  0  0  0  0  0  0  0  0  0
    6.4309   -8.3047    0.0000 C   0  0  0  0  0  0  0  0  0  0  0  0
    6.4281   -7.4744    0.0000 C   0  0  0  0  0  0  0  0  0  0  0  0
    5.7128   -7.0654    0.0000 C   0  0  0  0  0  0  0  0  0  0  0  0
    7.1408   -7.0593    0.0000 C   0  0  0  0  0  0  0  0  0  0  0  0
    7.8567   -7.4690    0.0000 C   0  0  0  0  0  0  0  0  0  0  0  0
    7.8564   -8.2915    0.0000 C   0  0  0  0  0  0  0  0  0  0  0  0
    8.5714   -8.7011    0.0000 C   0  0  0  0  0  0  0  0  0  0  0  0
    9.2852   -8.2859    0.0000 C   0  0  0  0  0  0  0  0  0  0  0  0
    9.2794   -7.4569    0.0000 C   0  0  0  0  0  0  0  0  0  0  0  0
    8.5638   -7.0510    0.0000 C   0  0  0  0  0  0  0  0  0  0  0  0
    6.4218   -5.8248    0.0000 O   0  0  0  0  0  0  0  0  0  0  0  0
    6.4187   -5.0000    0.0000 C   0  0  0  0  0  0  0  0  0  0  0  0
   10.0015   -8.6947    0.0000 C   0  0  0  0  0  0  0  0  0  0  0  0
   10.0058   -9.5195    0.0000 F   0  0  0  0  0  0  0  0  0  0  0  0
   10.7137   -8.2787    0.0000 F   0  0  0  0  0  0  0  0  0  0  0  0
    9.4213   -9.2809    0.0000 F   0  0  0  0  0  0  0  0  0  0  0  0
 12 17  1  0  0  0  0
 17 18  1  0  0  0  0
 17 19  1  0  0  0  0
 17 20  1  0  0  0  0
  6  8  1  0  0  0  0
  4  5  2  0  0  0  0
  8  9  1  0  0  0  0
  5  6  1  0  0  0  0
  9 10  2  0  0  0  0
  3  4  1  0  0  0  0
 10 11  1  0  0  0  0
  8  1  2  0  0  0  0
  1 15  1  0  0  0  0
  6  7  2  0  0  0  0
 15 16  1  0  0  0  0
 11 12  2  0  0  0  0
  7  2  1  0  0  0  0
 12 13  1  0  0  0  0
  2  3  2  0  0  0  0
 13 14  2  0  0  0  0
 14  9  1  0  0  0  0
M  END
> <Molecule Name>
DNDI1418014

> <CDD Number>
CDD-1535352

> <IC50_uM>
> 1.0 (n=1)

$$$$

SketchEl molfile

 22 23  0  0  0  0  0  0  0  0999 V2000
    7.1415   -6.1252    0.0000 N   0  0  0  0  0  0  0  0  0  0  0  0
    5.0012   -7.3710    0.0000 C   0  0  0  0  0  0  0  0  0  0  0  0
    5.0000   -8.1996    0.0000 C   0  0  0  0  0  0  0  0  0  0  0  0
    5.7159   -8.6131    0.0000 N   0  0  0  0  0  0  0  0  0  0  0  0
    6.4335   -8.1992    0.0000 C   0  0  0  0  0  0  0  0  0  0  0  0
    6.4306   -7.3673    0.0000 C   0  0  0  0  0  0  0  0  0  0  0  0
    5.7141   -6.9576    0.0000 N   0  0  0  0  0  0  0  0  0  0  0  0
    7.1446   -6.9515    0.0000 C   0  0  0  0  0  0  0  0  0  0  0  0
    7.8618   -7.3619    0.0000 C   0  0  0  0  0  0  0  0  0  0  0  0
    7.8615   -8.1859    0.0000 C   0  0  0  0  0  0  0  0  0  0  0  0
    8.5778   -8.5962    0.0000 C   0  0  0  0  0  0  0  0  0  0  0  0
    9.2928   -8.1803    0.0000 C   0  0  0  0  0  0  0  0  0  0  0  0
    9.2870   -7.3498    0.0000 C   0  0  0  0  0  0  0  0  0  0  0  0
    8.5702   -6.9432    0.0000 C   0  0  0  0  0  0  0  0  0  0  0  0
    7.8555   -5.7094    0.0000 S   0  0  0  0  0  0  0  0  0  0  0  0
    8.5727   -6.1198    0.0000 C   0  0  0  0  0  0  0  0  0  0  0  0
    7.4894   -5.0000    0.0000 O   0  0  0  0  0  0  0  0  0  0  0  0
    8.2685   -5.0002    0.0000 O   0  0  0  0  0  0  0  0  0  0  0  0
   10.0105   -8.5898    0.0000 C   0  0  0  0  0  0  0  0  0  0  0  0
   10.0147   -9.4161    0.0000 F   0  0  0  0  0  0  0  0  0  0  0  0
   10.7240   -8.1730    0.0000 F   0  0  0  0  0  0  0  0  0  0  0  0
    9.4292   -9.1771    0.0000 F   0  0  0  0  0  0  0  0  0  0  0  0
 12 19  1  0  0  0  0
 19 20  1  0  0  0  0
 19 21  1  0  0  0  0
 19 22  1  0  0  0  0
  8  9  1  0  0  0  0
  5  6  1  0  0  0  0
  9 10  2  0  0  0  0
  3  4  1  0  0  0  0
 10 11  1  0  0  0  0
  8  1  1  0  0  0  0
  1 15  1  0  0  0  0
  6  7  2  0  0  0  0
 15 16  1  0  0  0  0
 11 12  2  0  0  0  0
 15 17  2  0  0  0  0
  7  2  1  0  0  0  0
 15 18  2  0  0  0  0
 12 13  1  0  0  0  0
  2  3  2  0  0  0  0
 13 14  2  0  0  0  0
 14  9  1  0  0  0  0
  6  8  1  0  0  0  0
  4  5  2  0  0  0  0
M  END
> <Molecule Name>
DNDI1418015

> <CDD Number>
CDD-1535353

> <IC50_uM>
> 10.0 (n=1)

$$$$

SketchEl molfile

 27 29  0  0  0  0  0  0  0  0999 V2000
    7.1164   -5.4129    0.0000 C   0  0  0  0  0  0  0  0  0  0  0  0
    7.1153   -6.2404    0.0000 C   0  0  0  0  0  0  0  0  0  0  0  0
    7.8303   -6.6534    0.0000 C   0  0  0  0  0  0  0  0  0  0  0  0
    8.5469   -6.2399    0.0000 C   0  0  0  0  0  0  0  0  0  0  0  0
    8.5440   -5.4092    0.0000 C   0  0  0  0  0  0  0  0  0  0  0  0
    7.8285   -5.0000    0.0000 C   0  0  0  0  0  0  0  0  0  0  0  0
    7.1387   -8.0174    0.0000 N   0  0  0  0  0  0  0  0  0  0  0  0
    5.0012   -9.2615    0.0000 C   0  0  0  0  0  0  0  0  0  0  0  0
    5.0000  -10.0890    0.0000 C   0  0  0  0  0  0  0  0  0  0  0  0
    5.7150  -10.5020    0.0000 N   0  0  0  0  0  0  0  0  0  0  0  0
    6.4316  -10.0886    0.0000 C   0  0  0  0  0  0  0  0  0  0  0  0
    6.4287   -9.2579    0.0000 C   0  0  0  0  0  0  0  0  0  0  0  0
    5.7132   -8.8486    0.0000 N   0  0  0  0  0  0  0  0  0  0  0  0
    7.1418   -8.8426    0.0000 C   0  0  0  0  0  0  0  0  0  0  0  0
    7.8580   -9.2525    0.0000 C   0  0  0  0  0  0  0  0  0  0  0  0
    7.8577  -10.0753    0.0000 C   0  0  0  0  0  0  0  0  0  0  0  0
    8.5731  -10.4851    0.0000 C   0  0  0  0  0  0  0  0  0  0  0  0
    9.2871  -10.0698    0.0000 C   0  0  0  0  0  0  0  0  0  0  0  0
    9.2813   -9.2403    0.0000 C   0  0  0  0  0  0  0  0  0  0  0  0
    8.5654   -8.8343    0.0000 C   0  0  0  0  0  0  0  0  0  0  0  0
    7.8517   -7.6021    0.0000 S   0  0  0  0  0  0  0  0  0  0  0  0
    8.5155   -7.2479    0.0000 O   0  0  0  0  0  0  0  0  0  0  0  0
    8.5143   -7.9691    0.0000 O   0  0  0  0  0  0  0  0  0  0  0  0
   10.0038  -10.4787    0.0000 C   0  0  0  0  0  0  0  0  0  0  0  0
   10.0080  -11.3039    0.0000 F   0  0  0  0  0  0  0  0  0  0  0  0
   10.7164  -10.0625    0.0000 F   0  0  0  0  0  0  0  0  0  0  0  0
    9.4233  -11.0652    0.0000 F   0  0  0  0  0  0  0  0  0  0  0  0
 18 24  1  0  0  0  0
 24 25  1  0  0  0  0
 24 26  1  0  0  0  0
 24 27  1  0  0  0  0
 11 12  1  0  0  0  0
 15 16  2  0  0  0  0
  9 10  1  0  0  0  0
 16 17  1  0  0  0  0
 14  7  1  0  0  0  0
  7 21  1  0  0  0  0
 12 13  2  0  0  0  0
 21  3  1  0  0  0  0
 17 18  2  0  0  0  0
 21 22  2  0  0  0  0
 13  8  1  0  0  0  0
 21 23  2  0  0  0  0
 18 19  1  0  0  0  0
  8  9  2  0  0  0  0
 19 20  2  0  0  0  0
 20 15  1  0  0  0  0
 12 14  1  0  0  0  0
 10 11  2  0  0  0  0
  4  5  1  0  0  0  0
  2  3  1  0  0  0  0
  5  6  2  0  0  0  0
  6  1  1  0  0  0  0
  1  2  2  0  0  0  0
  3  4  2  0  0  0  0
 14 15  1  0  0  0  0
M  END
> <Molecule Name>
DNDI1418016

> <CDD Number>
CDD-1535354

> <IC50_uM>
3.65 (n=1)

$$$$

SketchEl molfile

 33 36  0  0  0  0  0  0  0  0999 V2000
    9.2550   -5.4132    0.0000 C   0  0  0  0  0  0  0  0  0  0  0  0
    9.2539   -6.2414    0.0000 C   0  0  0  0  0  0  0  0  0  0  0  0
    9.9725   -6.6547    0.0000 C   0  0  0  0  0  0  0  0  0  0  0  0
   10.6886   -6.2409    0.0000 C   0  0  0  0  0  0  0  0  0  0  0  0
   10.6857   -5.4095    0.0000 C   0  0  0  0  0  0  0  0  0  0  0  0
    9.9707   -5.0000    0.0000 C   0  0  0  0  0  0  0  0  0  0  0  0
    9.9942   -7.6055    0.0000 S   0  0  0  0  0  0  0  0  0  0  0  0
   10.6568   -7.2516    0.0000 O   0  0  0  0  0  0  0  0  0  0  0  0
   10.6556   -7.9723    0.0000 O   0  0  0  0  0  0  0  0  0  0  0  0
    7.1412   -9.2593    0.0000 N   0  0  0  0  0  0  0  0  0  0  0  0
    5.0012  -10.5045    0.0000 C   0  0  0  0  0  0  0  0  0  0  0  0
    5.0000  -11.3285    0.0000 C   0  0  0  0  0  0  0  0  0  0  0  0
    5.7144  -11.7418    0.0000 N   0  0  0  0  0  0  0  0  0  0  0  0
    6.4347  -11.3280    0.0000 C   0  0  0  0  0  0  0  0  0  0  0  0
    6.4318  -10.5008    0.0000 C   0  0  0  0  0  0  0  0  0  0  0  0
    5.7126  -10.0913    0.0000 N   0  0  0  0  0  0  0  0  0  0  0  0
    7.1443  -10.0851    0.0000 C   0  0  0  0  0  0  0  0  0  0  0  0
    7.8600  -10.4953    0.0000 C   0  0  0  0  0  0  0  0  0  0  0  0
    7.8597  -11.3146    0.0000 C   0  0  0  0  0  0  0  0  0  0  0  0
    8.5745  -11.7247    0.0000 C   0  0  0  0  0  0  0  0  0  0  0  0
    9.2880  -11.3132    0.0000 C   0  0  0  0  0  0  0  0  0  0  0  0
    9.2822  -10.4831    0.0000 C   0  0  0  0  0  0  0  0  0  0  0  0
    8.5668  -10.0767    0.0000 C   0  0  0  0  0  0  0  0  0  0  0  0
    7.8537   -8.8436    0.0000 C   0  0  0  0  0  0  0  0  0  0  0  0
    8.5644   -9.2567    0.0000 C   0  0  0  0  0  0  0  0  0  0  0  0
    9.2748   -8.8446    0.0000 C   0  0  0  0  0  0  0  0  0  0  0  0
    9.2759   -8.0184    0.0000 N   0  0  0  0  0  0  0  0  0  0  0  0
    8.5604   -7.6060    0.0000 C   0  0  0  0  0  0  0  0  0  0  0  0
    7.8438   -8.0198    0.0000 C   0  0  0  0  0  0  0  0  0  0  0  0
   10.0042  -11.7183    0.0000 C   0  0  0  0  0  0  0  0  0  0  0  0
   10.0085  -12.5441    0.0000 F   0  0  0  0  0  0  0  0  0  0  0  0
   10.7204  -11.3059    0.0000 F   0  0  0  0  0  0  0  0  0  0  0  0
    9.4258  -12.3070    0.0000 F   0  0  0  0  0  0  0  0  0  0  0  0
 21 30  1  0  0  0  0
 30 31  1  0  0  0  0
 30 32  1  0  0  0  0
 30 33  1  0  0  0  0
 19 20  1  0  0  0  0
 17 10  1  0  0  0  0
 15 16  2  0  0  0  0
 20 21  2  0  0  0  0
 16 11  1  0  0  0  0
 21 22  1  0  0  0  0
 11 12  2  0  0  0  0
 22 23  2  0  0  0  0
 23 18  1  0  0  0  0
 15 17  1  0  0  0  0
 13 14  2  0  0  0  0
 17 18  1  0  0  0  0
  4  5  1  0  0  0  0
 10 24  1  0  0  0  0
 24 25  1  0  0  0  0
  2  3  1  0  0  0  0
  5  6  1  0  0  0  0
  6  1  1  0  0  0  0
  1  2  1  0  0  0  0
  3  4  1  0  0  0  0
 24 29  1  0  0  0  0
 25 26  1  0  0  0  0
 26 27  1  0  0  0  0
 27 28  1  0  0  0  0
 28 29  1  0  0  0  0
 27  7  1  0  0  0  0
  7  3  1  0  0  0  0
  7  8  2  0  0  0  0
  7  9  2  0  0  0  0
 14 15  1  0  0  0  0
 18 19  2  0  0  0  0
 12 13  1  0  0  0  0
M  END
> <Molecule Name>
DNDI1423046

> <CDD Number>
CDD-1535355

> <IC50_uM>
0.57 (n=1)

$$$$

SketchEl molfile

 32 35  0  0  0  0  0  0  0  0999 V2000
    7.1354   -7.4853    0.0000 N   0  0  0  0  0  0  0  0  0  0  0  0
    5.0012   -8.7271    0.0000 C   0  0  0  0  0  0  0  0  0  0  0  0
    5.0000   -9.5489    0.0000 C   0  0  0  0  0  0  0  0  0  0  0  0
    5.7125   -9.9611    0.0000 N   0  0  0  0  0  0  0  0  0  0  0  0
    6.4308   -9.5484    0.0000 C   0  0  0  0  0  0  0  0  0  0  0  0
    6.4280   -8.7234    0.0000 C   0  0  0  0  0  0  0  0  0  0  0  0
    5.7107   -8.3150    0.0000 N   0  0  0  0  0  0  0  0  0  0  0  0
    7.1385   -8.3089    0.0000 C   0  0  0  0  0  0  0  0  0  0  0  0
    7.8522   -8.7180    0.0000 C   0  0  0  0  0  0  0  0  0  0  0  0
    7.8520   -9.5350    0.0000 C   0  0  0  0  0  0  0  0  0  0  0  0
    8.5648   -9.9440    0.0000 C   0  0  0  0  0  0  0  0  0  0  0  0
    9.2764   -9.5337    0.0000 C   0  0  0  0  0  0  0  0  0  0  0  0
    9.2706   -8.7058    0.0000 C   0  0  0  0  0  0  0  0  0  0  0  0
    8.5572   -8.3005    0.0000 C   0  0  0  0  0  0  0  0  0  0  0  0
    7.8460   -7.0708    0.0000 C   0  0  0  0  0  0  0  0  0  0  0  0
    8.5547   -7.4827    0.0000 C   0  0  0  0  0  0  0  0  0  0  0  0
    9.2632   -7.0718    0.0000 C   0  0  0  0  0  0  0  0  0  0  0  0
    9.2643   -6.2478    0.0000 N   0  0  0  0  0  0  0  0  0  0  0  0
    8.5508   -5.8365    0.0000 C   0  0  0  0  0  0  0  0  0  0  0  0
    7.8361   -6.2491    0.0000 C   0  0  0  0  0  0  0  0  0  0  0  0
    9.9850   -5.8320    0.0000 C   0  0  0  0  0  0  0  0  0  0  0  0
   10.7054   -6.2483    0.0000 C   0  0  0  0  0  0  0  0  0  0  0  0
    9.9853   -5.0000    0.0000 O   0  0  0  0  0  0  0  0  0  0  0  0
   10.7018   -7.0810    0.0000 C   0  0  0  0  0  0  0  0  0  0  0  0
   11.4214   -7.4971    0.0000 C   0  0  0  0  0  0  0  0  0  0  0  0
   12.1431   -7.0813    0.0000 C   0  0  0  0  0  0  0  0  0  0  0  0
   12.1407   -6.2450    0.0000 C   0  0  0  0  0  0  0  0  0  0  0  0
   11.4205   -5.8326    0.0000 C   0  0  0  0  0  0  0  0  0  0  0  0
    9.9907   -9.9376    0.0000 C   0  0  0  0  0  0  0  0  0  0  0  0
    9.9949  -10.7612    0.0000 F   0  0  0  0  0  0  0  0  0  0  0  0
   10.7049   -9.5263    0.0000 F   0  0  0  0  0  0  0  0  0  0  0  0
    9.4138  -10.5247    0.0000 F   0  0  0  0  0  0  0  0  0  0  0  0
 12 29  1  0  0  0  0
 29 30  1  0  0  0  0
 29 31  1  0  0  0  0
 29 32  1  0  0  0  0
 15 16  1  0  0  0  0
 15 20  1  0  0  0  0
 16 17  1  0  0  0  0
 17 18  1  0  0  0  0
 18 19  1  0  0  0  0
 19 20  1  0  0  0  0
  5  6  1  0  0  0  0
  9 10  2  0  0  0  0
  3  4  1  0  0  0  0
 18 21  1  0  0  0  0
 10 11  1  0  0  0  0
 21 22  1  0  0  0  0
  8  1  1  0  0  0  0
 21 23  2  0  0  0  0
  6  7  2  0  0  0  0
 22 24  2  0  0  0  0
 11 12  2  0  0  0  0
 24 25  1  0  0  0  0
  7  2  1  0  0  0  0
 25 26  2  0  0  0  0
 12 13  1  0  0  0  0
 26 27  1  0  0  0  0
  2  3  2  0  0  0  0
 27 28  2  0  0  0  0
 28 22  1  0  0  0  0
 13 14  2  0  0  0  0
 14  9  1  0  0  0  0
  6  8  1  0  0  0  0
  4  5  2  0  0  0  0
  8  9  1  0  0  0  0
  1 15  1  0  0  0  0
M  END
> <Molecule Name>
DNDI1423047

> <CDD Number>
CDD-1535356

> <IC50_uM>
0.32 (n=1)

$$$$

SketchEl molfile

 33 36  0  0  0  0  0  0  0  0999 V2000
    9.2564   -5.4137    0.0000 C   0  0  0  0  0  0  0  0  0  0  0  0
    9.2552   -6.2430    0.0000 C   0  0  0  0  0  0  0  0  0  0  0  0
    9.9706   -6.6527    0.0000 C   0  0  0  0  0  0  0  0  0  0  0  0
   10.6876   -6.2425    0.0000 C   0  0  0  0  0  0  0  0  0  0  0  0
   10.6847   -5.4100    0.0000 C   0  0  0  0  0  0  0  0  0  0  0  0
    9.9687   -5.0000    0.0000 C   0  0  0  0  0  0  0  0  0  0  0  0
    9.9923   -7.6047    0.0000 S   0  0  0  0  0  0  0  0  0  0  0  0
   10.6558   -7.2503    0.0000 O   0  0  0  0  0  0  0  0  0  0  0  0
   10.6546   -7.9720    0.0000 O   0  0  0  0  0  0  0  0  0  0  0  0
    7.1398   -9.2606    0.0000 N   0  0  0  0  0  0  0  0  0  0  0  0
    5.0012  -10.5032    0.0000 C   0  0  0  0  0  0  0  0  0  0  0  0
    5.0000  -11.3283    0.0000 C   0  0  0  0  0  0  0  0  0  0  0  0
    5.7154  -11.7421    0.0000 N   0  0  0  0  0  0  0  0  0  0  0  0
    6.4324  -11.3278    0.0000 C   0  0  0  0  0  0  0  0  0  0  0  0
    6.4295  -10.4995    0.0000 C   0  0  0  0  0  0  0  0  0  0  0  0
    5.7135  -10.0937    0.0000 N   0  0  0  0  0  0  0  0  0  0  0  0
    7.1429  -10.0875    0.0000 C   0  0  0  0  0  0  0  0  0  0  0  0
    7.8595  -10.4941    0.0000 C   0  0  0  0  0  0  0  0  0  0  0  0
    7.8592  -11.3144    0.0000 C   0  0  0  0  0  0  0  0  0  0  0  0
    8.5750  -11.7251    0.0000 C   0  0  0  0  0  0  0  0  0  0  0  0
    9.2894  -11.3130    0.0000 C   0  0  0  0  0  0  0  0  0  0  0  0
    9.2836  -10.4818    0.0000 C   0  0  0  0  0  0  0  0  0  0  0  0
    8.5673  -10.0791    0.0000 C   0  0  0  0  0  0  0  0  0  0  0  0
    7.8532   -8.8444    0.0000 C   0  0  0  0  0  0  0  0  0  0  0  0
    8.5648   -9.2581    0.0000 C   0  0  0  0  0  0  0  0  0  0  0  0
    9.2761   -8.8454    0.0000 C   0  0  0  0  0  0  0  0  0  0  0  0
    9.2773   -8.0181    0.0000 N   0  0  0  0  0  0  0  0  0  0  0  0
    8.5609   -7.6052    0.0000 C   0  0  0  0  0  0  0  0  0  0  0  0
    7.8433   -8.0195    0.0000 C   0  0  0  0  0  0  0  0  0  0  0  0
   10.0023  -11.7186    0.0000 C   0  0  0  0  0  0  0  0  0  0  0  0
   10.0066  -12.5455    0.0000 F   0  0  0  0  0  0  0  0  0  0  0  0
   10.7194  -11.3056    0.0000 F   0  0  0  0  0  0  0  0  0  0  0  0
    9.4231  -12.3081    0.0000 F   0  0  0  0  0  0  0  0  0  0  0  0
 21 30  1  0  0  0  0
 30 31  1  0  0  0  0
 30 32  1  0  0  0  0
 30 33  1  0  0  0  0
 11 12  2  0  0  0  0
 22 23  2  0  0  0  0
 23 18  1  0  0  0  0
 15 17  1  0  0  0  0
 13 14  2  0  0  0  0
 17 18  1  0  0  0  0
  4  5  1  0  0  0  0
 10 24  1  0  0  0  0
 24 25  1  0  0  0  0
  2  3  1  0  0  0  0
  5  6  2  0  0  0  0
  6  1  1  0  0  0  0
  1  2  2  0  0  0  0
  3  4  2  0  0  0  0
 24 29  1  0  0  0  0
 25 26  1  0  0  0  0
 26 27  1  0  0  0  0
 27 28  1  0  0  0  0
 28 29  1  0  0  0  0
 27  7  1  0  0  0  0
  7  3  1  0  0  0  0
  7  8  2  0  0  0  0
  7  9  2  0  0  0  0
 14 15  1  0  0  0  0
 18 19  2  0  0  0  0
 12 13  1  0  0  0  0
 19 20  1  0  0  0  0
 17 10  1  0  0  0  0
 15 16  2  0  0  0  0
 20 21  2  0  0  0  0
 16 11  1  0  0  0  0
 21 22  1  0  0  0  0
M  END
> <Molecule Name>
DNDI1423048

> <CDD Number>
CDD-1535357

> <IC50_uM>
0.17 (n=1)

$$$$

SketchEl molfile

 28 30  0  0  0  0  0  0  0  0999 V2000
    9.9728   -5.0000    0.0000 C   0  0  0  0  0  0  0  0  0  0  0  0
    9.9945   -5.9525    0.0000 S   0  0  0  0  0  0  0  0  0  0  0  0
   10.6583   -5.5979    0.0000 O   0  0  0  0  0  0  0  0  0  0  0  0
   10.6571   -6.3199    0.0000 O   0  0  0  0  0  0  0  0  0  0  0  0
    7.1407   -7.6091    0.0000 N   0  0  0  0  0  0  0  0  0  0  0  0
    5.0012   -8.8523    0.0000 C   0  0  0  0  0  0  0  0  0  0  0  0
    5.0000   -9.6778    0.0000 C   0  0  0  0  0  0  0  0  0  0  0  0
    5.7157  -10.0918    0.0000 N   0  0  0  0  0  0  0  0  0  0  0  0
    6.4330   -9.6773    0.0000 C   0  0  0  0  0  0  0  0  0  0  0  0
    6.4301   -8.8486    0.0000 C   0  0  0  0  0  0  0  0  0  0  0  0
    5.7139   -8.4426    0.0000 N   0  0  0  0  0  0  0  0  0  0  0  0
    7.1439   -8.4364    0.0000 C   0  0  0  0  0  0  0  0  0  0  0  0
    7.8608   -8.8431    0.0000 C   0  0  0  0  0  0  0  0  0  0  0  0
    7.8605   -9.6638    0.0000 C   0  0  0  0  0  0  0  0  0  0  0  0
    8.5766  -10.0747    0.0000 C   0  0  0  0  0  0  0  0  0  0  0  0
    9.2913   -9.6625    0.0000 C   0  0  0  0  0  0  0  0  0  0  0  0
    9.2855   -8.8309    0.0000 C   0  0  0  0  0  0  0  0  0  0  0  0
    8.5689   -8.4280    0.0000 C   0  0  0  0  0  0  0  0  0  0  0  0
    7.8545   -7.1928    0.0000 C   0  0  0  0  0  0  0  0  0  0  0  0
    8.5664   -7.6066    0.0000 C   0  0  0  0  0  0  0  0  0  0  0  0
    9.2780   -7.1938    0.0000 C   0  0  0  0  0  0  0  0  0  0  0  0
    9.2792   -6.3661    0.0000 N   0  0  0  0  0  0  0  0  0  0  0  0
    8.5625   -5.9530    0.0000 C   0  0  0  0  0  0  0  0  0  0  0  0
    7.8445   -6.3675    0.0000 C   0  0  0  0  0  0  0  0  0  0  0  0
   10.0046  -10.0682    0.0000 C   0  0  0  0  0  0  0  0  0  0  0  0
   10.0088  -10.8955    0.0000 F   0  0  0  0  0  0  0  0  0  0  0  0
   10.7220   -9.6551    0.0000 F   0  0  0  0  0  0  0  0  0  0  0  0
    9.4251  -10.6580    0.0000 F   0  0  0  0  0  0  0  0  0  0  0  0
 16 25  1  0  0  0  0
 25 26  1  0  0  0  0
 25 27  1  0  0  0  0
 25 28  1  0  0  0  0
 12 13  1  0  0  0  0
  5 19  1  0  0  0  0
 19 20  1  0  0  0  0
 19 24  1  0  0  0  0
 20 21  1  0  0  0  0
 21 22  1  0  0  0  0
 22 23  1  0  0  0  0
 23 24  1  0  0  0  0
 22  2  1  0  0  0  0
  2  1  1  0  0  0  0
  2  3  2  0  0  0  0
  2  4  2  0  0  0  0
  9 10  1  0  0  0  0
 13 14  2  0  0  0  0
  7  8  1  0  0  0  0
 14 15  1  0  0  0  0
 12  5  1  0  0  0  0
 10 11  2  0  0  0  0
 15 16  2  0  0  0  0
 11  6  1  0  0  0  0
 16 17  1  0  0  0  0
  6  7  2  0  0  0  0
 17 18  2  0  0  0  0
 18 13  1  0  0  0  0
 10 12  1  0  0  0  0
  8  9  2  0  0  0  0
M  END
> <Molecule Name>
DNDI1423049

> <CDD Number>
CDD-1535358

> <IC50_uM>
0.97 (n=1)

$$$$

SketchEl molfile

 34 37  0  0  0  0  0  0  0  0999 V2000
    9.8330   -6.8849    0.0000 C   0  0  0  0  0  0  0  0  0  0  0  0
    9.8549   -7.8108    0.0000 S   0  0  0  0  0  0  0  0  0  0  0  0
   10.4984   -7.4662    0.0000 O   0  0  0  0  0  0  0  0  0  0  0  0
   10.4972   -8.1683    0.0000 O   0  0  0  0  0  0  0  0  0  0  0  0
    7.0809   -9.4208    0.0000 N   0  0  0  0  0  0  0  0  0  0  0  0
    5.0012  -10.6269    0.0000 C   0  0  0  0  0  0  0  0  0  0  0  0
    5.0000  -11.4291    0.0000 C   0  0  0  0  0  0  0  0  0  0  0  0
    5.6958  -11.8336    0.0000 N   0  0  0  0  0  0  0  0  0  0  0  0
    6.3932  -11.4286    0.0000 C   0  0  0  0  0  0  0  0  0  0  0  0
    6.3903  -10.6232    0.0000 C   0  0  0  0  0  0  0  0  0  0  0  0
    5.6939  -10.2310    0.0000 N   0  0  0  0  0  0  0  0  0  0  0  0
    7.0841  -10.2248    0.0000 C   0  0  0  0  0  0  0  0  0  0  0  0
    7.7811  -10.6177    0.0000 C   0  0  0  0  0  0  0  0  0  0  0  0
    7.7808  -11.4193    0.0000 C   0  0  0  0  0  0  0  0  0  0  0  0
    8.4769  -11.8163    0.0000 C   0  0  0  0  0  0  0  0  0  0  0  0
    9.1718  -11.4179    0.0000 C   0  0  0  0  0  0  0  0  0  0  0  0
    9.1659  -10.6096    0.0000 C   0  0  0  0  0  0  0  0  0  0  0  0
    8.4692  -10.2163    0.0000 C   0  0  0  0  0  0  0  0  0  0  0  0
    7.7747   -9.0140    0.0000 C   0  0  0  0  0  0  0  0  0  0  0  0
    8.4667   -9.4183    0.0000 C   0  0  0  0  0  0  0  0  0  0  0  0
    9.1584   -9.0150    0.0000 C   0  0  0  0  0  0  0  0  0  0  0  0
    9.1595   -8.2149    0.0000 N   0  0  0  0  0  0  0  0  0  0  0  0
    8.4627   -7.8113    0.0000 C   0  0  0  0  0  0  0  0  0  0  0  0
    7.7647   -8.2120    0.0000 C   0  0  0  0  0  0  0  0  0  0  0  0
   10.6236   -6.4030    0.0000 C   0  0  0  0  0  0  0  0  0  0  0  0
   11.4346   -6.8517    0.0000 C   0  0  0  0  0  0  0  0  0  0  0  0
   12.2246   -6.3748    0.0000 C   0  0  0  0  0  0  0  0  0  0  0  0
   12.2032   -5.4479    0.0000 C   0  0  0  0  0  0  0  0  0  0  0  0
   11.3848   -5.0000    0.0000 C   0  0  0  0  0  0  0  0  0  0  0  0
   10.5983   -5.4838    0.0000 C   0  0  0  0  0  0  0  0  0  0  0  0
    9.8608  -11.8098    0.0000 C   0  0  0  0  0  0  0  0  0  0  0  0
    9.8651  -12.6138    0.0000 F   0  0  0  0  0  0  0  0  0  0  0  0
   10.5583  -11.4105    0.0000 F   0  0  0  0  0  0  0  0  0  0  0  0
    9.2980  -12.3829    0.0000 F   0  0  0  0  0  0  0  0  0  0  0  0
 16 31  1  0  0  0  0
 31 32  1  0  0  0  0
 31 33  1  0  0  0  0
 31 34  1  0  0  0  0
  9 10  1  0  0  0  0
 13 14  2  0  0  0  0
  7  8  1  0  0  0  0
 14 15  1  0  0  0  0
 12  5  1  0  0  0  0
 10 11  2  0  0  0  0
 15 16  2  0  0  0  0
 11  6  1  0  0  0  0
 16 17  1  0  0  0  0
  6  7  2  0  0  0  0
 17 18  2  0  0  0  0
 18 13  1  0  0  0  0
 10 12  1  0  0  0  0
  8  9  2  0  0  0  0
  1 25  1  0  0  0  0
 12 13  1  0  0  0  0
 25 26  2  0  0  0  0
  5 19  1  0  0  0  0
 26 27  1  0  0  0  0
 19 20  1  0  0  0  0
 27 28  2  0  0  0  0
 19 24  1  0  0  0  0
 28 29  1  0  0  0  0
 20 21  1  0  0  0  0
 29 30  2  0  0  0  0
 30 25  1  0  0  0  0
 21 22  1  0  0  0  0
 22 23  1  0  0  0  0
 23 24  1  0  0  0  0
 22  2  1  0  0  0  0
  2  1  1  0  0  0  0
  2  3  2  0  0  0  0
  2  4  2  0  0  0  0
M  END
> <Molecule Name>
DNDI1423050

> <CDD Number>
CDD-1535359

> <IC50_uM>
0.21 (n=1)

$$$$

SketchEl molfile

 27 29  0  0  0  0  0  0  0  0999 V2000
    7.1296   -7.5260    0.0000 N   0  0  0  0  0  0  0  0  0  0  0  0
    5.0012   -8.7603    0.0000 C   0  0  0  0  0  0  0  0  0  0  0  0
    5.0000   -9.5813    0.0000 C   0  0  0  0  0  0  0  0  0  0  0  0
    5.7120   -9.9952    0.0000 N   0  0  0  0  0  0  0  0  0  0  0  0
    6.4258   -9.5808    0.0000 C   0  0  0  0  0  0  0  0  0  0  0  0
    6.4228   -8.7565    0.0000 C   0  0  0  0  0  0  0  0  0  0  0  0
    5.7101   -8.3552    0.0000 N   0  0  0  0  0  0  0  0  0  0  0  0
    7.1328   -8.3489    0.0000 C   0  0  0  0  0  0  0  0  0  0  0  0
    7.8461   -8.7509    0.0000 C   0  0  0  0  0  0  0  0  0  0  0  0
    7.8459   -9.5713    0.0000 C   0  0  0  0  0  0  0  0  0  0  0  0
    8.5583   -9.9776    0.0000 C   0  0  0  0  0  0  0  0  0  0  0  0
    9.2694   -9.5698    0.0000 C   0  0  0  0  0  0  0  0  0  0  0  0
    9.2633   -8.7426    0.0000 C   0  0  0  0  0  0  0  0  0  0  0  0
    8.5503   -8.3402    0.0000 C   0  0  0  0  0  0  0  0  0  0  0  0
    7.8396   -7.1097    0.0000 C   0  0  0  0  0  0  0  0  0  0  0  0
    8.5478   -7.5234    0.0000 C   0  0  0  0  0  0  0  0  0  0  0  0
    9.2556   -7.1107    0.0000 C   0  0  0  0  0  0  0  0  0  0  0  0
    9.2568   -6.2919    0.0000 N   0  0  0  0  0  0  0  0  0  0  0  0
    8.5437   -5.8788    0.0000 C   0  0  0  0  0  0  0  0  0  0  0  0
    7.8294   -6.2889    0.0000 C   0  0  0  0  0  0  0  0  0  0  0  0
   10.0040   -5.8620    0.0000 C   0  0  0  0  0  0  0  0  0  0  0  0
   10.7498   -6.2940    0.0000 C   0  0  0  0  0  0  0  0  0  0  0  0
   10.0052   -5.0000    0.0000 O   0  0  0  0  0  0  0  0  0  0  0  0
    9.9745   -9.9709    0.0000 C   0  0  0  0  0  0  0  0  0  0  0  0
    9.9789  -10.7937    0.0000 F   0  0  0  0  0  0  0  0  0  0  0  0
   10.6883   -9.5622    0.0000 F   0  0  0  0  0  0  0  0  0  0  0  0
    9.3986  -10.5574    0.0000 F   0  0  0  0  0  0  0  0  0  0  0  0
 12 24  1  0  0  0  0
 24 25  1  0  0  0  0
 24 26  1  0  0  0  0
 24 27  1  0  0  0  0
  2  3  2  0  0  0  0
 13 14  2  0  0  0  0
 14  9  1  0  0  0  0
  6  8  1  0  0  0  0
  4  5  2  0  0  0  0
  8  9  1  0  0  0  0
  1 15  1  0  0  0  0
 15 16  1  0  0  0  0
 15 20  1  0  0  0  0
 16 17  1  0  0  0  0
 17 18  1  0  0  0  0
 18 19  1  0  0  0  0
 19 20  1  0  0  0  0
 18 21  1  0  0  0  0
  5  6  1  0  0  0  0
 21 22  1  0  0  0  0
  9 10  2  0  0  0  0
 21 23  2  0  0  0  0
  3  4  1  0  0  0  0
 10 11  1  0  0  0  0
  8  1  1  0  0  0  0
  6  7  2  0  0  0  0
 11 12  2  0  0  0  0
  7  2  1  0  0  0  0
 12 13  1  0  0  0  0
M  END
> <Molecule Name>
DNDI1423051

> <CDD Number>
CDD-1535360

> <IC50_uM>
3.05 (n=1)

$$$$

SketchEl molfile

 31 33  0  0  0  0  0  0  0  0999 V2000
    9.9064   -6.4223    0.0000 C   0  0  0  0  0  0  0  0  0  0  0  0
    9.9287   -7.3622    0.0000 S   0  0  0  0  0  0  0  0  0  0  0  0
   10.5819   -7.0124    0.0000 O   0  0  0  0  0  0  0  0  0  0  0  0
   10.5806   -7.7252    0.0000 O   0  0  0  0  0  0  0  0  0  0  0  0
    7.1125   -8.9968    0.0000 N   0  0  0  0  0  0  0  0  0  0  0  0
    5.0012  -10.2211    0.0000 C   0  0  0  0  0  0  0  0  0  0  0  0
    5.0000  -11.0355    0.0000 C   0  0  0  0  0  0  0  0  0  0  0  0
    5.7063  -11.4461    0.0000 N   0  0  0  0  0  0  0  0  0  0  0  0
    6.4143  -11.0350    0.0000 C   0  0  0  0  0  0  0  0  0  0  0  0
    6.4114  -10.2174    0.0000 C   0  0  0  0  0  0  0  0  0  0  0  0
    5.7044   -9.8192    0.0000 N   0  0  0  0  0  0  0  0  0  0  0  0
    7.1157   -9.8130    0.0000 C   0  0  0  0  0  0  0  0  0  0  0  0
    7.8233  -10.2118    0.0000 C   0  0  0  0  0  0  0  0  0  0  0  0
    7.8230  -11.0256    0.0000 C   0  0  0  0  0  0  0  0  0  0  0  0
    8.5297  -11.4286    0.0000 C   0  0  0  0  0  0  0  0  0  0  0  0
    9.2351  -11.0242    0.0000 C   0  0  0  0  0  0  0  0  0  0  0  0
    9.2291  -10.2035    0.0000 C   0  0  0  0  0  0  0  0  0  0  0  0
    8.5218   -9.8043    0.0000 C   0  0  0  0  0  0  0  0  0  0  0  0
    7.8168   -8.5837    0.0000 C   0  0  0  0  0  0  0  0  0  0  0  0
    8.5193   -8.9941    0.0000 C   0  0  0  0  0  0  0  0  0  0  0  0
    9.2215   -8.5847    0.0000 C   0  0  0  0  0  0  0  0  0  0  0  0
    9.2227   -7.7725    0.0000 N   0  0  0  0  0  0  0  0  0  0  0  0
    8.5153   -7.3627    0.0000 C   0  0  0  0  0  0  0  0  0  0  0  0
    7.8067   -7.7696    0.0000 C   0  0  0  0  0  0  0  0  0  0  0  0
   10.7089   -5.9331    0.0000 C   0  0  0  0  0  0  0  0  0  0  0  0
   10.6833   -5.0000    0.0000 C   0  0  0  0  0  0  0  0  0  0  0  0
   11.5347   -6.3820    0.0000 C   0  0  0  0  0  0  0  0  0  0  0  0
    9.9346  -11.4220    0.0000 C   0  0  0  0  0  0  0  0  0  0  0  0
    9.9390  -12.2382    0.0000 F   0  0  0  0  0  0  0  0  0  0  0  0
   10.6427  -11.0166    0.0000 F   0  0  0  0  0  0  0  0  0  0  0  0
    9.3633  -12.0038    0.0000 F   0  0  0  0  0  0  0  0  0  0  0  0
 16 28  1  0  0  0  0
 28 29  1  0  0  0  0
 28 30  1  0  0  0  0
 28 31  1  0  0  0  0
 11  6  1  0  0  0  0
 16 17  1  0  0  0  0
  6  7  2  0  0  0  0
 17 18  2  0  0  0  0
 18 13  1  0  0  0  0
 10 12  1  0  0  0  0
  8  9  2  0  0  0  0
  1 25  1  0  0  0  0
 12 13  1  0  0  0  0
  5 19  1  0  0  0  0
 19 20  1  0  0  0  0
 19 24  1  0  0  0  0
 20 21  1  0  0  0  0
 26 25  1  0  0  0  0
 21 22  1  0  0  0  0
 22 23  1  0  0  0  0
 23 24  1  0  0  0  0
 22  2  1  0  0  0  0
  2  1  1  0  0  0  0
  2  3  2  0  0  0  0
  2  4  2  0  0  0  0
 25 27  1  0  0  0  0
  9 10  1  0  0  0  0
 13 14  2  0  0  0  0
  7  8  1  0  0  0  0
 14 15  1  0  0  0  0
 12  5  1  0  0  0  0
 10 11  2  0  0  0  0
 15 16  2  0  0  0  0
M  END
> <Molecule Name>
DNDI1423052

> <CDD Number>
CDD-1535361

> <IC50_uM>
0.33 (n=1)

$$$$

SketchEl molfile

 34 37  0  0  0  0  0  0  0  0999 V2000
    9.8338   -7.7758    0.0000 C   0  0  0  0  0  0  0  0  0  0  0  0
    9.8538   -8.6993    0.0000 S   0  0  0  0  0  0  0  0  0  0  0  0
   10.4959   -8.3571    0.0000 O   0  0  0  0  0  0  0  0  0  0  0  0
   10.4945   -9.0610    0.0000 O   0  0  0  0  0  0  0  0  0  0  0  0
    7.0825  -10.3111    0.0000 N   0  0  0  0  0  0  0  0  0  0  0  0
    5.0013  -11.5183    0.0000 C   0  0  0  0  0  0  0  0  0  0  0  0
    5.0000  -12.3209    0.0000 C   0  0  0  0  0  0  0  0  0  0  0  0
    5.6966  -12.7213    0.0000 N   0  0  0  0  0  0  0  0  0  0  0  0
    6.3950  -12.3203    0.0000 C   0  0  0  0  0  0  0  0  0  0  0  0
    6.3917  -11.5140    0.0000 C   0  0  0  0  0  0  0  0  0  0  0  0
    5.6945  -11.1228    0.0000 N   0  0  0  0  0  0  0  0  0  0  0  0
    7.0861  -11.1158    0.0000 C   0  0  0  0  0  0  0  0  0  0  0  0
    7.7793  -11.5078    0.0000 C   0  0  0  0  0  0  0  0  0  0  0  0
    7.7790  -12.3098    0.0000 C   0  0  0  0  0  0  0  0  0  0  0  0
    8.4760  -12.7066    0.0000 C   0  0  0  0  0  0  0  0  0  0  0  0
    9.1715  -12.3083    0.0000 C   0  0  0  0  0  0  0  0  0  0  0  0
    9.1648  -11.4986    0.0000 C   0  0  0  0  0  0  0  0  0  0  0  0
    8.4671  -11.1062    0.0000 C   0  0  0  0  0  0  0  0  0  0  0  0
    7.7769   -9.9080    0.0000 C   0  0  0  0  0  0  0  0  0  0  0  0
    8.4644  -10.3082    0.0000 C   0  0  0  0  0  0  0  0  0  0  0  0
    9.1563   -9.9092    0.0000 C   0  0  0  0  0  0  0  0  0  0  0  0
    9.1576   -9.1088    0.0000 N   0  0  0  0  0  0  0  0  0  0  0  0
    8.4646   -8.6998    0.0000 C   0  0  0  0  0  0  0  0  0  0  0  0
    7.7655   -9.1056    0.0000 C   0  0  0  0  0  0  0  0  0  0  0  0
   10.6265   -7.3028    0.0000 C   0  0  0  0  0  0  0  0  0  0  0  0
   10.6021   -6.3755    0.0000 C   0  0  0  0  0  0  0  0  0  0  0  0
    9.7915   -5.9294    0.0000 C   0  0  0  0  0  0  0  0  0  0  0  0
    8.9940   -6.4184    0.0000 C   0  0  0  0  0  0  0  0  0  0  0  0
    9.0228   -7.3439    0.0000 C   0  0  0  0  0  0  0  0  0  0  0  0
    9.7653   -5.0000    0.0000 Cl  0  0  0  0  0  0  0  0  0  0  0  0
    9.8604  -12.6992    0.0000 C   0  0  0  0  0  0  0  0  0  0  0  0
    9.8653  -13.5039    0.0000 F   0  0  0  0  0  0  0  0  0  0  0  0
   10.5590  -12.2998    0.0000 F   0  0  0  0  0  0  0  0  0  0  0  0
    9.3001  -13.2713    0.0000 F   0  0  0  0  0  0  0  0  0  0  0  0
 16 31  1  0  0  0  0
 31 32  1  0  0  0  0
 31 33  1  0  0  0  0
 31 34  1  0  0  0  0
  2  3  2  0  0  0  0
  2  4  2  0  0  0  0
  9 10  1  0  0  0  0
 13 14  2  0  0  0  0
  7  8  1  0  0  0  0
 14 15  1  0  0  0  0
 12  5  1  0  0  0  0
 10 11  2  0  0  0  0
 15 16  2  0  0  0  0
  1 25  2  0  0  0  0
 11  6  1  0  0  0  0
 25 26  1  0  0  0  0
 16 17  1  0  0  0  0
 26 27  2  0  0  0  0
  6  7  2  0  0  0  0
 27 28  1  0  0  0  0
 17 18  2  0  0  0  0
 28 29  2  0  0  0  0
 29  1  1  0  0  0  0
 18 13  1  0  0  0  0
 27 30  1  0  0  0  0
 10 12  1  0  0  0  0
  8  9  2  0  0  0  0
 12 13  1  0  0  0  0
  5 19  1  0  0  0  0
 19 20  1  0  0  0  0
 19 24  1  0  0  0  0
 20 21  1  0  0  0  0
 21 22  1  0  0  0  0
 22 23  1  0  0  0  0
 23 24  1  0  0  0  0
 22  2  1  0  0  0  0
  2  1  1  0  0  0  0
M  END
> <Molecule Name>
DNDI1423053

> <CDD Number>
CDD-1535362

> <IC50_uM>
0.33 (n=1)

$$$$

SketchEl molfile

 27 30  0  0  0  0  0  0  0  0999 V2000
    7.1395   -9.1285    0.0000 N   0  0  0  0  0  0  0  0  0  0  0  0
    5.0014  -10.3687    0.0000 C   0  0  0  0  0  0  0  0  0  0  0  0
    5.0000  -11.1933    0.0000 C   0  0  0  0  0  0  0  0  0  0  0  0
    5.7157  -11.6047    0.0000 N   0  0  0  0  0  0  0  0  0  0  0  0
    6.4332  -11.1928    0.0000 C   0  0  0  0  0  0  0  0  0  0  0  0
    6.4298  -10.3644    0.0000 C   0  0  0  0  0  0  0  0  0  0  0  0
    5.7135   -9.9624    0.0000 C   0  0  0  0  0  0  0  0  0  0  0  0
    7.1432   -9.9552    0.0000 C   0  0  0  0  0  0  0  0  0  0  0  0
    7.8554  -10.3580    0.0000 C   0  0  0  0  0  0  0  0  0  0  0  0
    7.8551  -11.1820    0.0000 C   0  0  0  0  0  0  0  0  0  0  0  0
    8.5712  -11.5896    0.0000 C   0  0  0  0  0  0  0  0  0  0  0  0
    9.2857  -11.1804    0.0000 C   0  0  0  0  0  0  0  0  0  0  0  0
    9.2789  -10.3485    0.0000 C   0  0  0  0  0  0  0  0  0  0  0  0
    8.5621   -9.9454    0.0000 C   0  0  0  0  0  0  0  0  0  0  0  0
    9.9998  -11.5904    0.0000 Cl  0  0  0  0  0  0  0  0  0  0  0  0
    7.8549   -8.7164    0.0000 C   0  0  0  0  0  0  0  0  0  0  0  0
    7.8532   -7.8932    0.0000 C   0  0  0  0  0  0  0  0  0  0  0  0
    7.1372   -7.4792    0.0000 N   0  0  0  0  0  0  0  0  0  0  0  0
    6.4212   -7.8945    0.0000 C   0  0  0  0  0  0  0  0  0  0  0  0
    6.4212   -8.7239    0.0000 C   0  0  0  0  0  0  0  0  0  0  0  0
    8.5555   -9.1230    0.0000 F   0  0  0  0  0  0  0  0  0  0  0  0
    7.1366   -6.6520    0.0000 C   0  0  0  0  0  0  0  0  0  0  0  0
    7.8540   -6.2402    0.0000 N   0  0  0  0  0  0  0  0  0  0  0  0
    7.8537   -5.4139    0.0000 C   0  0  0  0  0  0  0  0  0  0  0  0
    7.1366   -5.0000    0.0000 C   0  0  0  0  0  0  0  0  0  0  0  0
    6.4182   -5.4185    0.0000 C   0  0  0  0  0  0  0  0  0  0  0  0
    6.4219   -6.2434    0.0000 N   0  0  0  0  0  0  0  0  0  0  0  0
  6  8  1  0  0  0  0
  4  5  2  0  0  0  0
  8  9  1  0  0  0  0
 12 15  1  0  0  0  0
  1 16  1  0  0  0  0
  5  6  1  0  0  0  0
  9 10  2  0  0  0  0
  3  4  1  0  0  0  0
 10 11  1  0  0  0  0
  8  1  1  0  0  0  0
  1 20  1  0  0  0  0
 16 17  1  0  0  0  0
 17 18  1  0  0  0  0
 18 19  1  0  0  0  0
 19 20  1  0  0  0  0
  6  7  2  0  0  0  0
 14 21  1  0  0  0  0
 11 12  2  0  0  0  0
 18 22  1  0  0  0  0
  7  2  1  0  0  0  0
 22 23  2  0  0  0  0
 12 13  1  0  0  0  0
 23 24  1  0  0  0  0
  2  3  2  0  0  0  0
 24 25  2  0  0  0  0
 13 14  2  0  0  0  0
 25 26  1  0  0  0  0
 14  9  1  0  0  0  0
 26 27  2  0  0  0  0
 27 22  1  0  0  0  0
M  END
> <Molecule Name>
DNDI1423054

> <CDD Number>
CDD-1535363

> <IC50_uM>
0.026 (n=1)

$$$$

SketchEl molfile

 30 32  0  0  0  0  0  0  0  0999 V2000
   10.0007   -5.0000    0.0000 O   0  0  0  0  0  0  0  0  0  0  0  0
   10.0214   -5.9553    0.0000 C   0  0  0  0  0  0  0  0  0  0  0  0
   10.6843   -6.3295    0.0000 C   0  0  0  0  0  0  0  0  0  0  0  0
    7.1544   -7.6228    0.0000 N   0  0  0  0  0  0  0  0  0  0  0  0
    5.0014   -8.8717    0.0000 C   0  0  0  0  0  0  0  0  0  0  0  0
    5.0000   -9.7020    0.0000 C   0  0  0  0  0  0  0  0  0  0  0  0
    5.7206  -10.1163    0.0000 N   0  0  0  0  0  0  0  0  0  0  0  0
    6.4432   -9.7015    0.0000 C   0  0  0  0  0  0  0  0  0  0  0  0
    6.4398   -8.8673    0.0000 C   0  0  0  0  0  0  0  0  0  0  0  0
    5.7185   -8.4626    0.0000 N   0  0  0  0  0  0  0  0  0  0  0  0
    7.1581   -8.4553    0.0000 C   0  0  0  0  0  0  0  0  0  0  0  0
    7.8752   -8.8609    0.0000 C   0  0  0  0  0  0  0  0  0  0  0  0
    7.8749   -9.6906    0.0000 C   0  0  0  0  0  0  0  0  0  0  0  0
    8.5960  -10.1010    0.0000 C   0  0  0  0  0  0  0  0  0  0  0  0
    9.3155   -9.6890    0.0000 C   0  0  0  0  0  0  0  0  0  0  0  0
    9.3086   -8.8514    0.0000 C   0  0  0  0  0  0  0  0  0  0  0  0
    8.5869   -8.4454    0.0000 C   0  0  0  0  0  0  0  0  0  0  0  0
    7.8728   -7.2058    0.0000 C   0  0  0  0  0  0  0  0  0  0  0  0
    8.5840   -7.6198    0.0000 C   0  0  0  0  0  0  0  0  0  0  0  0
    9.2998   -7.2070    0.0000 C   0  0  0  0  0  0  0  0  0  0  0  0
    9.3012   -6.3791    0.0000 N   0  0  0  0  0  0  0  0  0  0  0  0
    8.5843   -5.9559    0.0000 C   0  0  0  0  0  0  0  0  0  0  0  0
    7.8610   -6.3757    0.0000 C   0  0  0  0  0  0  0  0  0  0  0  0
   11.3398   -5.9426    0.0000 C   0  0  0  0  0  0  0  0  0  0  0  0
   12.0026   -6.3167    0.0000 C   0  0  0  0  0  0  0  0  0  0  0  0
   11.3324   -5.1814    0.0000 C   0  0  0  0  0  0  0  0  0  0  0  0
   10.0283  -10.0934    0.0000 C   0  0  0  0  0  0  0  0  0  0  0  0
   10.0333  -10.9259    0.0000 F   0  0  0  0  0  0  0  0  0  0  0  0
   10.7510   -9.6803    0.0000 F   0  0  0  0  0  0  0  0  0  0  0  0
    9.4485  -10.6852    0.0000 F   0  0  0  0  0  0  0  0  0  0  0  0
 15 27  1  0  0  0  0
 27 28  1  0  0  0  0
 27 29  1  0  0  0  0
 27 30  1  0  0  0  0
 15 16  1  0  0  0  0
  5  6  2  0  0  0  0
 16 17  2  0  0  0  0
 17 12  1  0  0  0  0
  9 11  1  0  0  0  0
  7  8  2  0  0  0  0
 11 12  1  0  0  0  0
  4 18  1  0  0  0  0
 18 19  1  0  0  0  0
 18 23  1  0  0  0  0
 19 20  1  0  0  0  0
 20 21  1  0  0  0  0
 21 22  1  0  0  0  0
 22 23  1  0  0  0  0
 21  2  1  0  0  0  0
  2  1  2  0  0  0  0
  3 24  1  0  0  0  0
  2  3  1  0  0  0  0
 24 25  1  0  0  0  0
  8  9  1  0  0  0  0
 24 26  1  0  0  0  0
 12 13  2  0  0  0  0
  6  7  1  0  0  0  0
 13 14  1  0  0  0  0
 11  4  1  0  0  0  0
  9 10  2  0  0  0  0
 14 15  2  0  0  0  0
 10  5  1  0  0  0  0
M  END
> <Molecule Name>
DNDI1423055

> <CDD Number>
CDD-1535364

> <IC50_uM>
0.27 (n=1)

$$$$

SketchEl molfile

 29 32  0  0  0  0  0  0  0  0999 V2000
    9.8930   -5.0000    0.0000 O   0  0  0  0  0  0  0  0  0  0  0  0
    9.9132   -5.9885    0.0000 C   0  0  0  0  0  0  0  0  0  0  0  0
   10.5618   -6.3790    0.0000 C   0  0  0  0  0  0  0  0  0  0  0  0
    7.1080   -7.7176    0.0000 N   0  0  0  0  0  0  0  0  0  0  0  0
    5.0014   -9.0127    0.0000 C   0  0  0  0  0  0  0  0  0  0  0  0
    5.0000   -9.8740    0.0000 C   0  0  0  0  0  0  0  0  0  0  0  0
    5.7051  -10.3037    0.0000 N   0  0  0  0  0  0  0  0  0  0  0  0
    6.4121   -9.8734    0.0000 C   0  0  0  0  0  0  0  0  0  0  0  0
    6.4088   -9.0085    0.0000 C   0  0  0  0  0  0  0  0  0  0  0  0
    5.7030   -8.5929    0.0000 N   0  0  0  0  0  0  0  0  0  0  0  0
    7.1116   -8.5810    0.0000 C   0  0  0  0  0  0  0  0  0  0  0  0
    7.8133   -9.0022    0.0000 C   0  0  0  0  0  0  0  0  0  0  0  0
    7.8130   -9.8628    0.0000 C   0  0  0  0  0  0  0  0  0  0  0  0
    8.5185  -10.2888    0.0000 C   0  0  0  0  0  0  0  0  0  0  0  0
    9.2225   -9.8612    0.0000 C   0  0  0  0  0  0  0  0  0  0  0  0
    9.2158   -8.9929    0.0000 C   0  0  0  0  0  0  0  0  0  0  0  0
    8.5096   -8.5712    0.0000 C   0  0  0  0  0  0  0  0  0  0  0  0
    7.8109   -7.2852    0.0000 C   0  0  0  0  0  0  0  0  0  0  0  0
    8.5068   -7.7147    0.0000 C   0  0  0  0  0  0  0  0  0  0  0  0
    9.2072   -7.2864    0.0000 C   0  0  0  0  0  0  0  0  0  0  0  0
    9.2085   -6.4275    0.0000 N   0  0  0  0  0  0  0  0  0  0  0  0
    8.5071   -5.9891    0.0000 C   0  0  0  0  0  0  0  0  0  0  0  0
    7.7994   -6.4242    0.0000 C   0  0  0  0  0  0  0  0  0  0  0  0
   10.9393   -7.0571    0.0000 C   0  0  0  0  0  0  0  0  0  0  0  0
   11.3054   -6.3695    0.0000 C   0  0  0  0  0  0  0  0  0  0  0  0
    9.9199   -9.9642    0.0000 C   0  0  0  0  0  0  0  0  0  0  0  0
    9.9249  -10.7788    0.0000 F   0  0  0  0  0  0  0  0  0  0  0  0
   10.6270   -9.5600    0.0000 F   0  0  0  0  0  0  0  0  0  0  0  0
    9.3527  -10.5433    0.0000 F   0  0  0  0  0  0  0  0  0  0  0  0
 15 26  1  0  0  0  0
 26 27  1  0  0  0  0
 26 28  1  0  0  0  0
 26 29  1  0  0  0  0
  4 18  1  0  0  0  0
 18 19  1  0  0  0  0
 18 23  1  0  0  0  0
 19 20  1  0  0  0  0
 20 21  1  0  0  0  0
 21 22  1  0  0  0  0
 22 23  1  0  0  0  0
 21  2  1  0  0  0  0
  2  1  2  0  0  0  0
  2  3  1  0  0  0  0
  8  9  1  0  0  0  0
 12 13  2  0  0  0  0
  6  7  1  0  0  0  0
 13 14  1  0  0  0  0
 11  4  1  0  0  0  0
  9 10  2  0  0  0  0
 14 15  2  0  0  0  0
 10  5  1  0  0  0  0
 24  3  1  0  0  0  0
 25 24  1  0  0  0  0
  3 25  1  0  0  0  0
 15 16  1  0  0  0  0
  5  6  2  0  0  0  0
 16 17  2  0  0  0  0
 17 12  1  0  0  0  0
  9 11  1  0  0  0  0
  7  8  2  0  0  0  0
 11 12  1  0  0  0  0
M  END
> <Molecule Name>
DNDI1423056

> <CDD Number>
CDD-1535365

> <IC50_uM>
0.47 (n=1)

$$$$

SketchEl molfile

 32 35  0  0  0  0  0  0  0  0999 V2000
   10.0345   -5.0000    0.0000 O   0  0  0  0  0  0  0  0  0  0  0  0
   10.0553   -5.9619    0.0000 C   0  0  0  0  0  0  0  0  0  0  0  0
   10.7227   -6.3386    0.0000 C   0  0  0  0  0  0  0  0  0  0  0  0
    7.1690   -7.6406    0.0000 N   0  0  0  0  0  0  0  0  0  0  0  0
    5.0014   -8.8979    0.0000 C   0  0  0  0  0  0  0  0  0  0  0  0
    5.0000   -9.7339    0.0000 C   0  0  0  0  0  0  0  0  0  0  0  0
    5.7255  -10.1509    0.0000 N   0  0  0  0  0  0  0  0  0  0  0  0
    6.4530   -9.7333    0.0000 C   0  0  0  0  0  0  0  0  0  0  0  0
    6.4495   -8.8935    0.0000 C   0  0  0  0  0  0  0  0  0  0  0  0
    5.7233   -8.4860    0.0000 N   0  0  0  0  0  0  0  0  0  0  0  0
    7.1727   -8.4787    0.0000 C   0  0  0  0  0  0  0  0  0  0  0  0
    7.8947   -8.8870    0.0000 C   0  0  0  0  0  0  0  0  0  0  0  0
    7.8944   -9.7223    0.0000 C   0  0  0  0  0  0  0  0  0  0  0  0
    8.6203  -10.1356    0.0000 C   0  0  0  0  0  0  0  0  0  0  0  0
    9.3447   -9.7207    0.0000 C   0  0  0  0  0  0  0  0  0  0  0  0
    9.3377   -8.8774    0.0000 C   0  0  0  0  0  0  0  0  0  0  0  0
    8.6111   -8.4687    0.0000 C   0  0  0  0  0  0  0  0  0  0  0  0
    7.8922   -7.2208    0.0000 C   0  0  0  0  0  0  0  0  0  0  0  0
    8.6082   -7.6376    0.0000 C   0  0  0  0  0  0  0  0  0  0  0  0
    9.3289   -7.2220    0.0000 C   0  0  0  0  0  0  0  0  0  0  0  0
    9.3303   -6.3884    0.0000 N   0  0  0  0  0  0  0  0  0  0  0  0
    8.6085   -5.9624    0.0000 C   0  0  0  0  0  0  0  0  0  0  0  0
    7.8803   -6.3851    0.0000 C   0  0  0  0  0  0  0  0  0  0  0  0
   10.7256   -7.1056    0.0000 C   0  0  0  0  0  0  0  0  0  0  0  0
   11.3892   -7.4822    0.0000 C   0  0  0  0  0  0  0  0  0  0  0  0
   12.0514   -7.0959    0.0000 C   0  0  0  0  0  0  0  0  0  0  0  0
   12.0458   -6.3287    0.0000 C   0  0  0  0  0  0  0  0  0  0  0  0
   11.3780   -5.9479    0.0000 C   0  0  0  0  0  0  0  0  0  0  0  0
   10.0623  -10.1279    0.0000 C   0  0  0  0  0  0  0  0  0  0  0  0
   10.0673  -10.9660    0.0000 F   0  0  0  0  0  0  0  0  0  0  0  0
   10.7898   -9.7119    0.0000 F   0  0  0  0  0  0  0  0  0  0  0  0
    9.4786  -10.7237    0.0000 F   0  0  0  0  0  0  0  0  0  0  0  0
 15 29  1  0  0  0  0
 29 30  1  0  0  0  0
 29 31  1  0  0  0  0
 29 32  1  0  0  0  0
 12 13  2  0  0  0  0
  6  7  1  0  0  0  0
 13 14  1  0  0  0  0
 11  4  1  0  0  0  0
  9 10  2  0  0  0  0
 14 15  2  0  0  0  0
 10  5  1  0  0  0  0
 15 16  1  0  0  0  0
  5  6  2  0  0  0  0
 16 17  2  0  0  0  0
 17 12  1  0  0  0  0
  9 11  1  0  0  0  0
  7  8  2  0  0  0  0
 11 12  1  0  0  0  0
  3 24  1  0  0  0  0
  4 18  1  0  0  0  0
 18 19  1  0  0  0  0
 18 23  1  0  0  0  0
 19 20  1  0  0  0  0
  3 28  1  0  0  0  0
 24 25  1  0  0  0  0
 25 26  1  0  0  0  0
 26 27  1  0  0  0  0
 27 28  1  0  0  0  0
 20 21  1  0  0  0  0
 21 22  1  0  0  0  0
 22 23  1  0  0  0  0
 21  2  1  0  0  0  0
  2  1  2  0  0  0  0
  2  3  1  0  0  0  0
  8  9  1  0  0  0  0
M  END
> <Molecule Name>
DNDI1423057

> <CDD Number>
CDD-1535366

> <IC50_uM>
0.2 (n=1)

$$$$

SketchEl molfile

 26 28  0  0  0  0  0  0  0  0999 V2000
    7.1433   -7.8890    0.0000 N   0  0  0  0  0  0  0  0  0  0  0  0
    5.0014   -9.1314    0.0000 C   0  0  0  0  0  0  0  0  0  0  0  0
    5.0000   -9.9575    0.0000 C   0  0  0  0  0  0  0  0  0  0  0  0
    5.7169  -10.3696    0.0000 N   0  0  0  0  0  0  0  0  0  0  0  0
    6.4358   -9.9570    0.0000 C   0  0  0  0  0  0  0  0  0  0  0  0
    6.4324   -9.1271    0.0000 C   0  0  0  0  0  0  0  0  0  0  0  0
    5.7148   -8.7244    0.0000 N   0  0  0  0  0  0  0  0  0  0  0  0
    7.1470   -8.7172    0.0000 C   0  0  0  0  0  0  0  0  0  0  0  0
    7.8604   -9.1207    0.0000 C   0  0  0  0  0  0  0  0  0  0  0  0
    7.8601   -9.9461    0.0000 C   0  0  0  0  0  0  0  0  0  0  0  0
    8.5775  -10.3545    0.0000 C   0  0  0  0  0  0  0  0  0  0  0  0
    9.2933   -9.9445    0.0000 C   0  0  0  0  0  0  0  0  0  0  0  0
    9.2864   -9.1112    0.0000 C   0  0  0  0  0  0  0  0  0  0  0  0
    8.5684   -8.7073    0.0000 C   0  0  0  0  0  0  0  0  0  0  0  0
    7.8580   -7.4742    0.0000 C   0  0  0  0  0  0  0  0  0  0  0  0
    8.5656   -7.8860    0.0000 O   0  0  0  0  0  0  0  0  0  0  0  0
    7.8463   -6.6483    0.0000 C   0  0  0  0  0  0  0  0  0  0  0  0
    8.5575   -6.2288    0.0000 C   0  0  0  0  0  0  0  0  0  0  0  0
    8.5462   -5.4037    0.0000 C   0  0  0  0  0  0  0  0  0  0  0  0
    7.8246   -5.0000    0.0000 C   0  0  0  0  0  0  0  0  0  0  0  0
    7.1129   -5.4276    0.0000 C   0  0  0  0  0  0  0  0  0  0  0  0
    7.1277   -6.2513    0.0000 C   0  0  0  0  0  0  0  0  0  0  0  0
   10.0024  -10.3469    0.0000 C   0  0  0  0  0  0  0  0  0  0  0  0
   10.0074  -11.1751    0.0000 F   0  0  0  0  0  0  0  0  0  0  0  0
   10.7214   -9.9359    0.0000 F   0  0  0  0  0  0  0  0  0  0  0  0
    9.4257  -10.9357    0.0000 F   0  0  0  0  0  0  0  0  0  0  0  0
 12 23  1  0  0  0  0
 23 24  1  0  0  0  0
 23 25  1  0  0  0  0
 23 26  1  0  0  0  0
  6  8  1  0  0  0  0
  4  5  2  0  0  0  0
  8  9  1  0  0  0  0
  1 15  1  0  0  0  0
 15 16  2  0  0  0  0
 15 17  1  0  0  0  0
  5  6  1  0  0  0  0
 17 18  2  0  0  0  0
  9 10  2  0  0  0  0
 18 19  1  0  0  0  0
  3  4  1  0  0  0  0
 19 20  2  0  0  0  0
 10 11  1  0  0  0  0
 20 21  1  0  0  0  0
  8  1  1  0  0  0  0
 21 22  2  0  0  0  0
 22 17  1  0  0  0  0
  6  7  2  0  0  0  0
 11 12  2  0  0  0  0
  7  2  1  0  0  0  0
 12 13  1  0  0  0  0
  2  3  2  0  0  0  0
 13 14  2  0  0  0  0
 14  9  1  0  0  0  0
M  END
> <Molecule Name>
DNDI1423058

> <CDD Number>
CDD-1535367

> <IC50_uM>
> 1.0 (n=1)

$$$$

SketchEl molfile

 28 30  0  0  0  0  0  0  0  0999 V2000
    7.7821   -6.8346    0.0000 C   0  0  0  0  0  0  0  0  0  0  0  0
    7.8018   -7.7398    0.0000 S   0  0  0  0  0  0  0  0  0  0  0  0
    8.4312   -7.4045    0.0000 O   0  0  0  0  0  0  0  0  0  0  0  0
    8.4298   -8.0944    0.0000 O   0  0  0  0  0  0  0  0  0  0  0  0
    7.0413   -8.2842    0.0000 N   0  0  0  0  0  0  0  0  0  0  0  0
    5.0013   -9.4675    0.0000 C   0  0  0  0  0  0  0  0  0  0  0  0
    5.0000  -10.2542    0.0000 C   0  0  0  0  0  0  0  0  0  0  0  0
    5.6828  -10.6467    0.0000 N   0  0  0  0  0  0  0  0  0  0  0  0
    6.3674  -10.2537    0.0000 C   0  0  0  0  0  0  0  0  0  0  0  0
    6.3642   -9.4633    0.0000 C   0  0  0  0  0  0  0  0  0  0  0  0
    5.6807   -9.0798    0.0000 N   0  0  0  0  0  0  0  0  0  0  0  0
    7.0448   -9.0730    0.0000 C   0  0  0  0  0  0  0  0  0  0  0  0
    7.7242   -9.4572    0.0000 C   0  0  0  0  0  0  0  0  0  0  0  0
    7.7240  -10.2434    0.0000 C   0  0  0  0  0  0  0  0  0  0  0  0
    8.4072  -10.6323    0.0000 C   0  0  0  0  0  0  0  0  0  0  0  0
    9.0889  -10.2418    0.0000 C   0  0  0  0  0  0  0  0  0  0  0  0
    9.0823   -9.4482    0.0000 C   0  0  0  0  0  0  0  0  0  0  0  0
    8.3985   -9.0635    0.0000 C   0  0  0  0  0  0  0  0  0  0  0  0
    6.9623   -6.3847    0.0000 C   0  0  0  0  0  0  0  0  0  0  0  0
    6.9443   -5.4499    0.0000 C   0  0  0  0  0  0  0  0  0  0  0  0
    6.1254   -5.0000    0.0000 C   0  0  0  0  0  0  0  0  0  0  0  0
    5.3246   -5.4852    0.0000 C   0  0  0  0  0  0  0  0  0  0  0  0
    5.3480   -6.4250    0.0000 C   0  0  0  0  0  0  0  0  0  0  0  0
    6.1675   -6.8706    0.0000 C   0  0  0  0  0  0  0  0  0  0  0  0
    9.7642  -10.6250    0.0000 C   0  0  0  0  0  0  0  0  0  0  0  0
    9.7690  -11.4138    0.0000 F   0  0  0  0  0  0  0  0  0  0  0  0
   10.4489  -10.2336    0.0000 F   0  0  0  0  0  0  0  0  0  0  0  0
    9.2149  -11.1858    0.0000 F   0  0  0  0  0  0  0  0  0  0  0  0
 16 25  1  0  0  0  0
 25 26  1  0  0  0  0
 25 27  1  0  0  0  0
 25 28  1  0  0  0  0
 16 17  1  0  0  0  0
  6  7  2  0  0  0  0
 17 18  2  0  0  0  0
 18 13  1  0  0  0  0
 10 12  1  0  0  0  0
  8  9  2  0  0  0  0
 12 13  1  0  0  0  0
  1 19  1  0  0  0  0
  2  5  1  0  0  0  0
 19 20  2  0  0  0  0
  2  3  2  0  0  0  0
 20 21  1  0  0  0  0
  2  4  2  0  0  0  0
 21 22  2  0  0  0  0
  2  1  1  0  0  0  0
 22 23  1  0  0  0  0
  9 10  1  0  0  0  0
 23 24  2  0  0  0  0
 24 19  1  0  0  0  0
 13 14  2  0  0  0  0
  7  8  1  0  0  0  0
 14 15  1  0  0  0  0
 12  5  1  0  0  0  0
 10 11  2  0  0  0  0
 15 16  2  0  0  0  0
 11  6  1  0  0  0  0
M  END
> <Molecule Name>
DNDI1423059

> <CDD Number>
CDD-1535368

> <IC50_uM>
> 1.0 (n=1)

$$$$

SketchEl molfile

 25 26  0  0  0  0  0  0  0  0999 V2000
    7.8409   -6.4139    0.0000 C   0  0  0  0  0  0  0  0  0  0  0  0
    7.8609   -7.3383    0.0000 S   0  0  0  0  0  0  0  0  0  0  0  0
    8.5036   -6.9958    0.0000 O   0  0  0  0  0  0  0  0  0  0  0  0
    8.5022   -7.7003    0.0000 O   0  0  0  0  0  0  0  0  0  0  0  0
    7.0844   -7.8941    0.0000 N   0  0  0  0  0  0  0  0  0  0  0  0
    5.0013   -9.1024    0.0000 C   0  0  0  0  0  0  0  0  0  0  0  0
    5.0000   -9.9057    0.0000 C   0  0  0  0  0  0  0  0  0  0  0  0
    5.6972  -10.3065    0.0000 N   0  0  0  0  0  0  0  0  0  0  0  0
    6.3963   -9.9052    0.0000 C   0  0  0  0  0  0  0  0  0  0  0  0
    6.3930   -9.0982    0.0000 C   0  0  0  0  0  0  0  0  0  0  0  0
    5.6951   -8.7066    0.0000 N   0  0  0  0  0  0  0  0  0  0  0  0
    7.0880   -8.6996    0.0000 C   0  0  0  0  0  0  0  0  0  0  0  0
    7.7817   -9.0919    0.0000 C   0  0  0  0  0  0  0  0  0  0  0  0
    7.7815   -9.8947    0.0000 C   0  0  0  0  0  0  0  0  0  0  0  0
    8.4791  -10.2918    0.0000 C   0  0  0  0  0  0  0  0  0  0  0  0
    9.1752   -9.8931    0.0000 C   0  0  0  0  0  0  0  0  0  0  0  0
    9.1685   -9.0827    0.0000 C   0  0  0  0  0  0  0  0  0  0  0  0
    8.4702   -8.6899    0.0000 C   0  0  0  0  0  0  0  0  0  0  0  0
    7.0037   -5.9545    0.0000 C   0  0  0  0  0  0  0  0  0  0  0  0
    6.9853   -5.0000    0.0000 C   0  0  0  0  0  0  0  0  0  0  0  0
    6.1922   -6.4507    0.0000 C   0  0  0  0  0  0  0  0  0  0  0  0
    9.8648  -10.2844    0.0000 C   0  0  0  0  0  0  0  0  0  0  0  0
    9.8697  -11.0898    0.0000 F   0  0  0  0  0  0  0  0  0  0  0  0
   10.5640   -9.8847    0.0000 F   0  0  0  0  0  0  0  0  0  0  0  0
    9.3039  -10.8569    0.0000 F   0  0  0  0  0  0  0  0  0  0  0  0
 16 22  1  0  0  0  0
 22 23  1  0  0  0  0
 22 24  1  0  0  0  0
 22 25  1  0  0  0  0
  8  9  2  0  0  0  0
 12 13  1  0  0  0  0
  1 19  1  0  0  0  0
  2  5  1  0  0  0  0
 19 20  1  0  0  0  0
  2  3  2  0  0  0  0
  2  4  2  0  0  0  0
  2  1  1  0  0  0  0
  9 10  1  0  0  0  0
 21 19  1  0  0  0  0
 13 14  2  0  0  0  0
  7  8  1  0  0  0  0
 14 15  1  0  0  0  0
 12  5  1  0  0  0  0
 10 11  2  0  0  0  0
 15 16  2  0  0  0  0
 11  6  1  0  0  0  0
 16 17  1  0  0  0  0
  6  7  2  0  0  0  0
 17 18  2  0  0  0  0
 18 13  1  0  0  0  0
 10 12  1  0  0  0  0
M  END
> <Molecule Name>
DNDI1423060

> <CDD Number>
CDD-1535369

> <IC50_uM>
> 1.0 (n=1)

$$$$

SketchEl molfile

 23 24  0  0  0  0  0  0  0  0999 V2000
    7.8781   -5.4654    0.0000 C   0  0  0  0  0  0  0  0  0  0  0  0
    7.8984   -6.4019    0.0000 S   0  0  0  0  0  0  0  0  0  0  0  0
    8.5495   -6.0549    0.0000 O   0  0  0  0  0  0  0  0  0  0  0  0
    8.5481   -6.7686    0.0000 O   0  0  0  0  0  0  0  0  0  0  0  0
    7.1117   -6.9650    0.0000 N   0  0  0  0  0  0  0  0  0  0  0  0
    5.0014   -8.1890    0.0000 C   0  0  0  0  0  0  0  0  0  0  0  0
    5.0000   -9.0029    0.0000 C   0  0  0  0  0  0  0  0  0  0  0  0
    5.7063   -9.4089    0.0000 N   0  0  0  0  0  0  0  0  0  0  0  0
    6.4146   -9.0024    0.0000 C   0  0  0  0  0  0  0  0  0  0  0  0
    6.4112   -8.1848    0.0000 C   0  0  0  0  0  0  0  0  0  0  0  0
    5.7042   -7.7881    0.0000 N   0  0  0  0  0  0  0  0  0  0  0  0
    7.1153   -7.7810    0.0000 C   0  0  0  0  0  0  0  0  0  0  0  0
    7.8182   -8.1785    0.0000 C   0  0  0  0  0  0  0  0  0  0  0  0
    7.8179   -8.9917    0.0000 C   0  0  0  0  0  0  0  0  0  0  0  0
    8.5246   -9.3940    0.0000 C   0  0  0  0  0  0  0  0  0  0  0  0
    9.2299   -8.9901    0.0000 C   0  0  0  0  0  0  0  0  0  0  0  0
    9.2231   -8.1691    0.0000 C   0  0  0  0  0  0  0  0  0  0  0  0
    8.5157   -7.7712    0.0000 C   0  0  0  0  0  0  0  0  0  0  0  0
    7.0299   -5.0000    0.0000 C   0  0  0  0  0  0  0  0  0  0  0  0
    9.9285   -9.3865    0.0000 C   0  0  0  0  0  0  0  0  0  0  0  0
    9.9334  -10.2025    0.0000 F   0  0  0  0  0  0  0  0  0  0  0  0
   10.6368   -8.9816    0.0000 F   0  0  0  0  0  0  0  0  0  0  0  0
    9.3603   -9.9666    0.0000 F   0  0  0  0  0  0  0  0  0  0  0  0
 16 20  1  0  0  0  0
 20 21  1  0  0  0  0
 20 22  1  0  0  0  0
 20 23  1  0  0  0  0
  2  1  1  0  0  0  0
  9 10  1  0  0  0  0
 13 14  2  0  0  0  0
  7  8  1  0  0  0  0
 14 15  1  0  0  0  0
 12  5  1  0  0  0  0
 10 11  2  0  0  0  0
 15 16  2  0  0  0  0
 11  6  1  0  0  0  0
 16 17  1  0  0  0  0
  6  7  2  0  0  0  0
 17 18  2  0  0  0  0
 18 13  1  0  0  0  0
 10 12  1  0  0  0  0
  8  9  2  0  0  0  0
 12 13  1  0  0  0  0
  1 19  1  0  0  0  0
  2  5  1  0  0  0  0
  2  3  2  0  0  0  0
  2  4  2  0  0  0  0
M  END
> <Molecule Name>
DNDI1423061

> <CDD Number>
CDD-1535370

> <IC50_uM>
> 1.0 (n=1)

$$$$

SketchEl molfile

 30 32  0  0  0  0  0  0  0  0999 V2000
    7.7780   -8.2219    0.0000 C   0  0  0  0  0  0  0  0  0  0  0  0
    7.7976   -9.1258    0.0000 S   0  0  0  0  0  0  0  0  0  0  0  0
    8.4261   -8.7910    0.0000 O   0  0  0  0  0  0  0  0  0  0  0  0
    8.4248   -9.4798    0.0000 O   0  0  0  0  0  0  0  0  0  0  0  0
    7.0383   -9.6694    0.0000 N   0  0  0  0  0  0  0  0  0  0  0  0
    5.0013  -10.8509    0.0000 C   0  0  0  0  0  0  0  0  0  0  0  0
    5.0000  -11.6365    0.0000 C   0  0  0  0  0  0  0  0  0  0  0  0
    5.6818  -12.0284    0.0000 N   0  0  0  0  0  0  0  0  0  0  0  0
    6.3654  -11.6360    0.0000 C   0  0  0  0  0  0  0  0  0  0  0  0
    6.3622  -10.8468    0.0000 C   0  0  0  0  0  0  0  0  0  0  0  0
    5.6797  -10.4639    0.0000 N   0  0  0  0  0  0  0  0  0  0  0  0
    7.0418  -10.4570    0.0000 C   0  0  0  0  0  0  0  0  0  0  0  0
    7.7202  -10.8407    0.0000 C   0  0  0  0  0  0  0  0  0  0  0  0
    7.7199  -11.6257    0.0000 C   0  0  0  0  0  0  0  0  0  0  0  0
    8.4021  -12.0140    0.0000 C   0  0  0  0  0  0  0  0  0  0  0  0
    9.0829  -11.6242    0.0000 C   0  0  0  0  0  0  0  0  0  0  0  0
    9.0763  -10.8317    0.0000 C   0  0  0  0  0  0  0  0  0  0  0  0
    8.3935  -10.4476    0.0000 C   0  0  0  0  0  0  0  0  0  0  0  0
    8.5523   -7.7579    0.0000 C   0  0  0  0  0  0  0  0  0  0  0  0
    8.5331   -6.8549    0.0000 C   0  0  0  0  0  0  0  0  0  0  0  0
    7.7399   -6.4190    0.0000 C   0  0  0  0  0  0  0  0  0  0  0  0
    6.9644   -6.8928    0.0000 C   0  0  0  0  0  0  0  0  0  0  0  0
    6.9874   -7.7943    0.0000 C   0  0  0  0  0  0  0  0  0  0  0  0
    7.7184   -5.4854    0.0000 C   0  0  0  0  0  0  0  0  0  0  0  0
    8.5162   -5.0000    0.0000 C   0  0  0  0  0  0  0  0  0  0  0  0
    6.8991   -5.0372    0.0000 C   0  0  0  0  0  0  0  0  0  0  0  0
    9.7572  -12.0068    0.0000 C   0  0  0  0  0  0  0  0  0  0  0  0
    9.7620  -12.7944    0.0000 F   0  0  0  0  0  0  0  0  0  0  0  0
   10.4409  -11.6159    0.0000 F   0  0  0  0  0  0  0  0  0  0  0  0
    9.2087  -12.5667    0.0000 F   0  0  0  0  0  0  0  0  0  0  0  0
 16 27  1  0  0  0  0
 27 28  1  0  0  0  0
 27 29  1  0  0  0  0
 27 30  1  0  0  0  0
 10 12  1  0  0  0  0
  8  9  2  0  0  0  0
 12 13  1  0  0  0  0
  2  5  1  0  0  0  0
  2  3  2  0  0  0  0
  2  4  2  0  0  0  0
  1 19  2  0  0  0  0
  2  1  1  0  0  0  0
 19 20  1  0  0  0  0
  9 10  1  0  0  0  0
 20 21  2  0  0  0  0
 13 14  2  0  0  0  0
 21 22  1  0  0  0  0
  7  8  1  0  0  0  0
 22 23  2  0  0  0  0
 23  1  1  0  0  0  0
 14 15  1  0  0  0  0
 21 24  1  0  0  0  0
 12  5  1  0  0  0  0
 24 25  1  0  0  0  0
 10 11  2  0  0  0  0
 24 26  1  0  0  0  0
 15 16  2  0  0  0  0
 11  6  1  0  0  0  0
 16 17  1  0  0  0  0
  6  7  2  0  0  0  0
 17 18  2  0  0  0  0
 18 13  1  0  0  0  0
M  END
> <Molecule Name>
DNDI1423062

> <CDD Number>
CDD-1535371

> <IC50_uM>
> 1.0 (n=1)

$$$$

SketchEl molfile

 31 33  0  0  0  0  0  0  0  0999 V2000
    7.7670   -7.7256    0.0000 C   0  0  0  0  0  0  0  0  0  0  0  0
    7.7865   -8.6259    0.0000 S   0  0  0  0  0  0  0  0  0  0  0  0
    8.4125   -8.2924    0.0000 O   0  0  0  0  0  0  0  0  0  0  0  0
    8.4111   -8.9785    0.0000 O   0  0  0  0  0  0  0  0  0  0  0  0
    7.0302   -9.1673    0.0000 N   0  0  0  0  0  0  0  0  0  0  0  0
    5.0013  -10.3441    0.0000 C   0  0  0  0  0  0  0  0  0  0  0  0
    5.0000  -11.1266    0.0000 C   0  0  0  0  0  0  0  0  0  0  0  0
    5.6791  -11.5169    0.0000 N   0  0  0  0  0  0  0  0  0  0  0  0
    6.3600  -11.1261    0.0000 C   0  0  0  0  0  0  0  0  0  0  0  0
    6.3567  -10.3400    0.0000 C   0  0  0  0  0  0  0  0  0  0  0  0
    5.6770   -9.9586    0.0000 N   0  0  0  0  0  0  0  0  0  0  0  0
    7.0337   -9.9518    0.0000 C   0  0  0  0  0  0  0  0  0  0  0  0
    7.7094  -10.3340    0.0000 C   0  0  0  0  0  0  0  0  0  0  0  0
    7.7091  -11.1158    0.0000 C   0  0  0  0  0  0  0  0  0  0  0  0
    8.3886  -11.5026    0.0000 C   0  0  0  0  0  0  0  0  0  0  0  0
    9.0666  -11.1143    0.0000 C   0  0  0  0  0  0  0  0  0  0  0  0
    9.0601  -10.3250    0.0000 C   0  0  0  0  0  0  0  0  0  0  0  0
    8.3800   -9.9424    0.0000 C   0  0  0  0  0  0  0  0  0  0  0  0
    8.5381   -7.2635    0.0000 C   0  0  0  0  0  0  0  0  0  0  0  0
    8.5190   -6.3640    0.0000 C   0  0  0  0  0  0  0  0  0  0  0  0
    7.7290   -5.9299    0.0000 C   0  0  0  0  0  0  0  0  0  0  0  0
    6.9566   -6.4018    0.0000 C   0  0  0  0  0  0  0  0  0  0  0  0
    6.9795   -7.2997    0.0000 C   0  0  0  0  0  0  0  0  0  0  0  0
    9.7383  -11.4954    0.0000 C   0  0  0  0  0  0  0  0  0  0  0  0
    9.7430  -12.2799    0.0000 F   0  0  0  0  0  0  0  0  0  0  0  0
   10.4193  -11.1061    0.0000 F   0  0  0  0  0  0  0  0  0  0  0  0
    9.1920  -12.0531    0.0000 F   0  0  0  0  0  0  0  0  0  0  0  0
    7.7076   -5.0000    0.0000 C   0  0  0  0  0  0  0  0  0  0  0  0
    8.5022   -4.5165    0.0000 F   0  0  0  0  0  0  0  0  0  0  0  0
    6.8916   -4.5536    0.0000 F   0  0  0  0  0  0  0  0  0  0  0  0
    7.4462   -4.1073    0.0000 F   0  0  0  0  0  0  0  0  0  0  0  0
 16 24  1  0  0  0  0
 24 25  1  0  0  0  0
 24 26  1  0  0  0  0
 24 27  1  0  0  0  0
 21 28  1  0  0  0  0
 28 29  1  0  0  0  0
 28 30  1  0  0  0  0
 28 31  1  0  0  0  0
 22 23  2  0  0  0  0
 23  1  1  0  0  0  0
 14 15  1  0  0  0  0
 12  5  1  0  0  0  0
 10 11  2  0  0  0  0
 15 16  2  0  0  0  0
 11  6  1  0  0  0  0
 16 17  1  0  0  0  0
  6  7  2  0  0  0  0
 17 18  2  0  0  0  0
 18 13  1  0  0  0  0
 10 12  1  0  0  0  0
  8  9  2  0  0  0  0
 12 13  1  0  0  0  0
  2  5  1  0  0  0  0
  2  3  2  0  0  0  0
  2  4  2  0  0  0  0
  1 19  2  0  0  0  0
  2  1  1  0  0  0  0
 19 20  1  0  0  0  0
  9 10  1  0  0  0  0
 20 21  2  0  0  0  0
 13 14  2  0  0  0  0
 21 22  1  0  0  0  0
  7  8  1  0  0  0  0
M  END
> <Molecule Name>
DNDI1423063

> <CDD Number>
CDD-1535372

> <IC50_uM>
> 1.0 (n=1)

$$$$

SketchEl molfile

 28 30  0  0  0  0  0  0  0  0999 V2000
    7.8027   -7.7608    0.0000 C   0  0  0  0  0  0  0  0  0  0  0  0
    7.8225   -8.6727    0.0000 S   0  0  0  0  0  0  0  0  0  0  0  0
    8.4565   -8.3348    0.0000 O   0  0  0  0  0  0  0  0  0  0  0  0
    8.4552   -9.0298    0.0000 O   0  0  0  0  0  0  0  0  0  0  0  0
    7.0564   -9.2210    0.0000 N   0  0  0  0  0  0  0  0  0  0  0  0
    5.0013  -10.4131    0.0000 C   0  0  0  0  0  0  0  0  0  0  0  0
    5.0000  -11.2056    0.0000 C   0  0  0  0  0  0  0  0  0  0  0  0
    5.6878  -11.6010    0.0000 N   0  0  0  0  0  0  0  0  0  0  0  0
    6.3775  -11.2051    0.0000 C   0  0  0  0  0  0  0  0  0  0  0  0
    6.3743  -10.4089    0.0000 C   0  0  0  0  0  0  0  0  0  0  0  0
    5.6858  -10.0226    0.0000 N   0  0  0  0  0  0  0  0  0  0  0  0
    7.0599  -10.0157    0.0000 C   0  0  0  0  0  0  0  0  0  0  0  0
    7.7444  -10.4028    0.0000 C   0  0  0  0  0  0  0  0  0  0  0  0
    7.7441  -11.1947    0.0000 C   0  0  0  0  0  0  0  0  0  0  0  0
    8.4323  -11.5865    0.0000 C   0  0  0  0  0  0  0  0  0  0  0  0
    9.1191  -11.1932    0.0000 C   0  0  0  0  0  0  0  0  0  0  0  0
    9.1125  -10.3937    0.0000 C   0  0  0  0  0  0  0  0  0  0  0  0
    8.4236  -10.0062    0.0000 C   0  0  0  0  0  0  0  0  0  0  0  0
    8.5838   -7.2926    0.0000 C   0  0  0  0  0  0  0  0  0  0  0  0
    8.5644   -6.3816    0.0000 C   0  0  0  0  0  0  0  0  0  0  0  0
    7.7642   -5.9418    0.0000 C   0  0  0  0  0  0  0  0  0  0  0  0
    6.9819   -6.4199    0.0000 C   0  0  0  0  0  0  0  0  0  0  0  0
    7.0051   -7.3294    0.0000 C   0  0  0  0  0  0  0  0  0  0  0  0
    7.7425   -5.0000    0.0000 Cl  0  0  0  0  0  0  0  0  0  0  0  0
    9.7994  -11.5792    0.0000 C   0  0  0  0  0  0  0  0  0  0  0  0
    9.8042  -12.3738    0.0000 F   0  0  0  0  0  0  0  0  0  0  0  0
   10.4892  -11.1849    0.0000 F   0  0  0  0  0  0  0  0  0  0  0  0
    9.2461  -12.1441    0.0000 F   0  0  0  0  0  0  0  0  0  0  0  0
 16 25  1  0  0  0  0
 25 26  1  0  0  0  0
 25 27  1  0  0  0  0
 25 28  1  0  0  0  0
 16 17  1  0  0  0  0
  6  7  2  0  0  0  0
 17 18  2  0  0  0  0
 18 13  1  0  0  0  0
 10 12  1  0  0  0  0
  8  9  2  0  0  0  0
 12 13  1  0  0  0  0
  2  5  1  0  0  0  0
  2  3  2  0  0  0  0
  2  4  2  0  0  0  0
  1 19  2  0  0  0  0
  2  1  1  0  0  0  0
 19 20  1  0  0  0  0
  9 10  1  0  0  0  0
 20 21  2  0  0  0  0
 13 14  2  0  0  0  0
 21 22  1  0  0  0  0
  7  8  1  0  0  0  0
 21 24  1  0  0  0  0
 22 23  2  0  0  0  0
 23  1  1  0  0  0  0
 14 15  1  0  0  0  0
 12  5  1  0  0  0  0
 10 11  2  0  0  0  0
 15 16  2  0  0  0  0
 11  6  1  0  0  0  0
M  END
> <Molecule Name>
DNDI1423064

> <CDD Number>
CDD-1535373

> <IC50_uM>
> 1.0 (n=1)

$$$$

SketchEl molfile

 27 29  0  0  0  0  0  0  0  0999 V2000
    7.8165   -6.8279    0.0000 C   0  0  0  0  0  0  0  0  0  0  0  0
    7.8364   -7.7443    0.0000 S   0  0  0  0  0  0  0  0  0  0  0  0
    8.4735   -7.4048    0.0000 O   0  0  0  0  0  0  0  0  0  0  0  0
    8.4722   -8.1032    0.0000 O   0  0  0  0  0  0  0  0  0  0  0  0
    7.0665   -8.2953    0.0000 N   0  0  0  0  0  0  0  0  0  0  0  0
    5.0013   -9.4932    0.0000 C   0  0  0  0  0  0  0  0  0  0  0  0
    5.0000  -10.2897    0.0000 C   0  0  0  0  0  0  0  0  0  0  0  0
    5.6912  -10.6870    0.0000 N   0  0  0  0  0  0  0  0  0  0  0  0
    6.3843  -10.2892    0.0000 C   0  0  0  0  0  0  0  0  0  0  0  0
    6.3810   -9.4891    0.0000 C   0  0  0  0  0  0  0  0  0  0  0  0
    5.6891   -9.1008    0.0000 N   0  0  0  0  0  0  0  0  0  0  0  0
    7.0701   -9.0939    0.0000 C   0  0  0  0  0  0  0  0  0  0  0  0
    7.7579   -9.4829    0.0000 C   0  0  0  0  0  0  0  0  0  0  0  0
    7.7576  -10.2787    0.0000 C   0  0  0  0  0  0  0  0  0  0  0  0
    8.4492  -10.6724    0.0000 C   0  0  0  0  0  0  0  0  0  0  0  0
    9.1394  -10.2772    0.0000 C   0  0  0  0  0  0  0  0  0  0  0  0
    9.1328   -9.4737    0.0000 C   0  0  0  0  0  0  0  0  0  0  0  0
    8.4405   -9.0843    0.0000 C   0  0  0  0  0  0  0  0  0  0  0  0
    8.6014   -6.3574    0.0000 C   0  0  0  0  0  0  0  0  0  0  0  0
    8.5820   -5.4419    0.0000 C   0  0  0  0  0  0  0  0  0  0  0  0
    7.7778   -5.0000    0.0000 C   0  0  0  0  0  0  0  0  0  0  0  0
    6.9916   -5.4804    0.0000 C   0  0  0  0  0  0  0  0  0  0  0  0
    7.0149   -6.3943    0.0000 C   0  0  0  0  0  0  0  0  0  0  0  0
    9.8231  -10.6651    0.0000 C   0  0  0  0  0  0  0  0  0  0  0  0
    9.8279  -11.4636    0.0000 F   0  0  0  0  0  0  0  0  0  0  0  0
   10.5162  -10.2688    0.0000 F   0  0  0  0  0  0  0  0  0  0  0  0
    9.2670  -11.2327    0.0000 F   0  0  0  0  0  0  0  0  0  0  0  0
 16 24  1  0  0  0  0
 24 25  1  0  0  0  0
 24 26  1  0  0  0  0
 24 27  1  0  0  0  0
  8  9  2  0  0  0  0
 12 13  1  0  0  0  0
  2  5  1  0  0  0  0
  2  3  2  0  0  0  0
  2  4  2  0  0  0  0
  1 19  1  0  0  0  0
  2  1  1  0  0  0  0
 19 20  1  0  0  0  0
  9 10  1  0  0  0  0
 20 21  1  0  0  0  0
 13 14  2  0  0  0  0
 21 22  1  0  0  0  0
  7  8  1  0  0  0  0
 22 23  1  0  0  0  0
 23  1  1  0  0  0  0
 14 15  1  0  0  0  0
 12  5  1  0  0  0  0
 10 11  2  0  0  0  0
 15 16  2  0  0  0  0
 11  6  1  0  0  0  0
 16 17  1  0  0  0  0
  6  7  2  0  0  0  0
 17 18  2  0  0  0  0
 18 13  1  0  0  0  0
 10 12  1  0  0  0  0
M  END
> <Molecule Name>
DNDI1423065

> <CDD Number>
CDD-1535374

> <IC50_uM>
> 1.0 (n=1)

$$$$

SketchEl molfile

 24 25  0  0  0  0  0  0  0  0999 V2000
    7.8678   -5.4790    0.0000 C   0  0  0  0  0  0  0  0  0  0  0  0
    7.8880   -6.4121    0.0000 S   0  0  0  0  0  0  0  0  0  0  0  0
    8.5368   -6.0664    0.0000 O   0  0  0  0  0  0  0  0  0  0  0  0
    8.5354   -6.7776    0.0000 O   0  0  0  0  0  0  0  0  0  0  0  0
    7.1041   -6.9732    0.0000 N   0  0  0  0  0  0  0  0  0  0  0  0
    5.0013   -8.1929    0.0000 C   0  0  0  0  0  0  0  0  0  0  0  0
    5.0000   -9.0039    0.0000 C   0  0  0  0  0  0  0  0  0  0  0  0
    5.7038   -9.4085    0.0000 N   0  0  0  0  0  0  0  0  0  0  0  0
    6.4095   -9.0034    0.0000 C   0  0  0  0  0  0  0  0  0  0  0  0
    6.4062   -8.1887    0.0000 C   0  0  0  0  0  0  0  0  0  0  0  0
    5.7017   -7.7934    0.0000 N   0  0  0  0  0  0  0  0  0  0  0  0
    7.1078   -7.7863    0.0000 C   0  0  0  0  0  0  0  0  0  0  0  0
    7.8081   -8.1824    0.0000 C   0  0  0  0  0  0  0  0  0  0  0  0
    7.8078   -8.9927    0.0000 C   0  0  0  0  0  0  0  0  0  0  0  0
    8.5120   -9.3936    0.0000 C   0  0  0  0  0  0  0  0  0  0  0  0
    9.2148   -8.9911    0.0000 C   0  0  0  0  0  0  0  0  0  0  0  0
    9.2080   -8.1731    0.0000 C   0  0  0  0  0  0  0  0  0  0  0  0
    8.5031   -7.7766    0.0000 C   0  0  0  0  0  0  0  0  0  0  0  0
    8.6670   -5.0000    0.0000 C   0  0  0  0  0  0  0  0  0  0  0  0
    7.0516   -5.0376    0.0000 C   0  0  0  0  0  0  0  0  0  0  0  0
    9.9109   -9.3861    0.0000 C   0  0  0  0  0  0  0  0  0  0  0  0
    9.9158  -10.1992    0.0000 F   0  0  0  0  0  0  0  0  0  0  0  0
   10.6167   -8.9826    0.0000 F   0  0  0  0  0  0  0  0  0  0  0  0
    9.3447   -9.9641    0.0000 F   0  0  0  0  0  0  0  0  0  0  0  0
 16 21  1  0  0  0  0
 21 22  1  0  0  0  0
 21 23  1  0  0  0  0
 21 24  1  0  0  0  0
  2  1  1  0  0  0  0
  9 10  1  0  0  0  0
 13 14  2  0  0  0  0
  7  8  1  0  0  0  0
 20  1  1  0  0  0  0
 14 15  1  0  0  0  0
 12  5  1  0  0  0  0
 10 11  2  0  0  0  0
 15 16  2  0  0  0  0
 11  6  1  0  0  0  0
 16 17  1  0  0  0  0
  6  7  2  0  0  0  0
 17 18  2  0  0  0  0
 18 13  1  0  0  0  0
 10 12  1  0  0  0  0
  8  9  2  0  0  0  0
 12 13  1  0  0  0  0
  2  5  1  0  0  0  0
  2  3  2  0  0  0  0
  2  4  2  0  0  0  0
  1 19  1  0  0  0  0
M  END
> <Molecule Name>
DNDI1423066

> <CDD Number>
CDD-1535375

> <IC50_uM>
> 1.0 (n=1)

$$$$

SketchEl molfile

 30 32  0  0  0  0  0  0  0  0999 V2000
    7.1427   -8.7147    0.0000 N   0  0  0  0  0  0  0  0  0  0  0  0
    5.0014   -9.9568    0.0000 C   0  0  0  0  0  0  0  0  0  0  0  0
    5.0000  -10.7826    0.0000 C   0  0  0  0  0  0  0  0  0  0  0  0
    5.7167  -11.1946    0.0000 N   0  0  0  0  0  0  0  0  0  0  0  0
    6.4354  -10.7821    0.0000 C   0  0  0  0  0  0  0  0  0  0  0  0
    6.4320   -9.9524    0.0000 C   0  0  0  0  0  0  0  0  0  0  0  0
    5.7146   -9.5499    0.0000 N   0  0  0  0  0  0  0  0  0  0  0  0
    7.1464   -9.5427    0.0000 C   0  0  0  0  0  0  0  0  0  0  0  0
    7.8596   -9.9460    0.0000 C   0  0  0  0  0  0  0  0  0  0  0  0
    7.8593  -10.7712    0.0000 C   0  0  0  0  0  0  0  0  0  0  0  0
    8.5765  -11.1795    0.0000 C   0  0  0  0  0  0  0  0  0  0  0  0
    9.2921  -10.7696    0.0000 C   0  0  0  0  0  0  0  0  0  0  0  0
    9.2853   -9.9366    0.0000 C   0  0  0  0  0  0  0  0  0  0  0  0
    8.5674   -9.5328    0.0000 C   0  0  0  0  0  0  0  0  0  0  0  0
    7.8572   -8.2999    0.0000 C   0  0  0  0  0  0  0  0  0  0  0  0
    8.5646   -8.7117    0.0000 O   0  0  0  0  0  0  0  0  0  0  0  0
    7.8455   -7.4743    0.0000 C   0  0  0  0  0  0  0  0  0  0  0  0
    8.5565   -7.0549    0.0000 C   0  0  0  0  0  0  0  0  0  0  0  0
    8.5452   -6.2300    0.0000 C   0  0  0  0  0  0  0  0  0  0  0  0
    7.8238   -5.8265    0.0000 C   0  0  0  0  0  0  0  0  0  0  0  0
    7.1123   -6.2539    0.0000 C   0  0  0  0  0  0  0  0  0  0  0  0
    7.1271   -7.0774    0.0000 C   0  0  0  0  0  0  0  0  0  0  0  0
   10.0010  -11.1719    0.0000 C   0  0  0  0  0  0  0  0  0  0  0  0
   10.0060  -11.9998    0.0000 F   0  0  0  0  0  0  0  0  0  0  0  0
   10.7198  -10.7610    0.0000 F   0  0  0  0  0  0  0  0  0  0  0  0
    9.4244  -11.7605    0.0000 F   0  0  0  0  0  0  0  0  0  0  0  0
    7.8110   -5.0000    0.0000 C   0  0  0  0  0  0  0  0  0  0  0  0
    8.5203   -4.5757    0.0000 F   0  0  0  0  0  0  0  0  0  0  0  0
    7.0888   -4.5978    0.0000 F   0  0  0  0  0  0  0  0  0  0  0  0
    8.6126   -5.2015    0.0000 F   0  0  0  0  0  0  0  0  0  0  0  0
 12 23  1  0  0  0  0
 23 24  1  0  0  0  0
 23 25  1  0  0  0  0
 23 26  1  0  0  0  0
 20 27  1  0  0  0  0
 27 28  1  0  0  0  0
 27 29  1  0  0  0  0
 27 30  1  0  0  0  0
 20 21  1  0  0  0  0
  8  1  1  0  0  0  0
 21 22  2  0  0  0  0
 22 17  1  0  0  0  0
  6  7  2  0  0  0  0
 11 12  2  0  0  0  0
  7  2  1  0  0  0  0
 12 13  1  0  0  0  0
  2  3  2  0  0  0  0
 13 14  2  0  0  0  0
 14  9  1  0  0  0  0
  6  8  1  0  0  0  0
  4  5  2  0  0  0  0
  8  9  1  0  0  0  0
  1 15  1  0  0  0  0
 15 16  2  0  0  0  0
 15 17  1  0  0  0  0
  5  6  1  0  0  0  0
 17 18  2  0  0  0  0
  9 10  2  0  0  0  0
 18 19  1  0  0  0  0
  3  4  1  0  0  0  0
 19 20  2  0  0  0  0
 10 11  1  0  0  0  0
M  END
> <Molecule Name>
DNDI1423067

> <CDD Number>
CDD-1535376

> <IC50_uM>
0.59 (n=1)

$$$$

SketchEl molfile

 27 29  0  0  0  0  0  0  0  0999 V2000
    7.1429   -8.7183    0.0000 N   0  0  0  0  0  0  0  0  0  0  0  0
    5.0014   -9.9605    0.0000 C   0  0  0  0  0  0  0  0  0  0  0  0
    5.0000  -10.7864    0.0000 C   0  0  0  0  0  0  0  0  0  0  0  0
    5.7168  -11.1984    0.0000 N   0  0  0  0  0  0  0  0  0  0  0  0
    6.4355  -10.7858    0.0000 C   0  0  0  0  0  0  0  0  0  0  0  0
    6.4321   -9.9562    0.0000 C   0  0  0  0  0  0  0  0  0  0  0  0
    5.7146   -9.5536    0.0000 N   0  0  0  0  0  0  0  0  0  0  0  0
    7.1466   -9.5464    0.0000 C   0  0  0  0  0  0  0  0  0  0  0  0
    7.8598   -9.9498    0.0000 C   0  0  0  0  0  0  0  0  0  0  0  0
    7.8595  -10.7750    0.0000 C   0  0  0  0  0  0  0  0  0  0  0  0
    8.5767  -11.1833    0.0000 C   0  0  0  0  0  0  0  0  0  0  0  0
    9.2924  -10.7734    0.0000 C   0  0  0  0  0  0  0  0  0  0  0  0
    9.2855   -9.9403    0.0000 C   0  0  0  0  0  0  0  0  0  0  0  0
    8.5676   -9.5365    0.0000 C   0  0  0  0  0  0  0  0  0  0  0  0
    7.8574   -8.3036    0.0000 C   0  0  0  0  0  0  0  0  0  0  0  0
    8.5648   -8.7153    0.0000 O   0  0  0  0  0  0  0  0  0  0  0  0
    7.8457   -7.4779    0.0000 C   0  0  0  0  0  0  0  0  0  0  0  0
    8.5568   -7.0584    0.0000 C   0  0  0  0  0  0  0  0  0  0  0  0
    8.5454   -6.2335    0.0000 C   0  0  0  0  0  0  0  0  0  0  0  0
    7.8240   -5.8300    0.0000 C   0  0  0  0  0  0  0  0  0  0  0  0
    7.1124   -6.2574    0.0000 C   0  0  0  0  0  0  0  0  0  0  0  0
    7.1273   -7.0809    0.0000 C   0  0  0  0  0  0  0  0  0  0  0  0
    7.8111   -5.0000    0.0000 Cl  0  0  0  0  0  0  0  0  0  0  0  0
   10.0013  -11.1757    0.0000 C   0  0  0  0  0  0  0  0  0  0  0  0
   10.0063  -12.0037    0.0000 F   0  0  0  0  0  0  0  0  0  0  0  0
   10.7201  -10.7647    0.0000 F   0  0  0  0  0  0  0  0  0  0  0  0
    9.4247  -11.7643    0.0000 F   0  0  0  0  0  0  0  0  0  0  0  0
 12 24  1  0  0  0  0
 24 25  1  0  0  0  0
 24 26  1  0  0  0  0
 24 27  1  0  0  0  0
 12 13  1  0  0  0  0
  2  3  2  0  0  0  0
 13 14  2  0  0  0  0
 14  9  1  0  0  0  0
  6  8  1  0  0  0  0
  4  5  2  0  0  0  0
  8  9  1  0  0  0  0
  1 15  1  0  0  0  0
 15 16  2  0  0  0  0
 15 17  1  0  0  0  0
  5  6  1  0  0  0  0
 17 18  2  0  0  0  0
  9 10  2  0  0  0  0
 18 19  1  0  0  0  0
  3  4  1  0  0  0  0
 19 20  2  0  0  0  0
 10 11  1  0  0  0  0
 20 23  1  0  0  0  0
 20 21  1  0  0  0  0
  8  1  1  0  0  0  0
 21 22  2  0  0  0  0
 22 17  1  0  0  0  0
  6  7  2  0  0  0  0
 11 12  2  0  0  0  0
  7  2  1  0  0  0  0
M  END
> <Molecule Name>
DNDI1423068

> <CDD Number>
CDD-1535377

> <IC50_uM>
0.86 (n=1)

$$$$

SketchEl molfile

 23 24  0  0  0  0  0  0  0  0999 V2000
    7.1440   -6.6608    0.0000 N   0  0  0  0  0  0  0  0  0  0  0  0
    5.0014   -7.9036    0.0000 C   0  0  0  0  0  0  0  0  0  0  0  0
    5.0000   -8.7300    0.0000 C   0  0  0  0  0  0  0  0  0  0  0  0
    5.7171   -9.1422    0.0000 N   0  0  0  0  0  0  0  0  0  0  0  0
    6.4362   -8.7294    0.0000 C   0  0  0  0  0  0  0  0  0  0  0  0
    6.4328   -7.8993    0.0000 C   0  0  0  0  0  0  0  0  0  0  0  0
    5.7150   -7.4965    0.0000 N   0  0  0  0  0  0  0  0  0  0  0  0
    7.1477   -7.4893    0.0000 C   0  0  0  0  0  0  0  0  0  0  0  0
    7.8613   -7.8929    0.0000 C   0  0  0  0  0  0  0  0  0  0  0  0
    7.8610   -8.7186    0.0000 C   0  0  0  0  0  0  0  0  0  0  0  0
    8.5786   -9.1270    0.0000 C   0  0  0  0  0  0  0  0  0  0  0  0
    9.2946   -8.7170    0.0000 C   0  0  0  0  0  0  0  0  0  0  0  0
    9.2878   -7.8834    0.0000 C   0  0  0  0  0  0  0  0  0  0  0  0
    8.5695   -7.4794    0.0000 C   0  0  0  0  0  0  0  0  0  0  0  0
    7.8589   -6.2458    0.0000 C   0  0  0  0  0  0  0  0  0  0  0  0
    8.5667   -6.6578    0.0000 O   0  0  0  0  0  0  0  0  0  0  0  0
    7.8472   -5.4197    0.0000 N   0  0  0  0  0  0  0  0  0  0  0  0
    8.5586   -5.0000    0.0000 C   0  0  0  0  0  0  0  0  0  0  0  0
    7.1284   -5.0226    0.0000 C   0  0  0  0  0  0  0  0  0  0  0  0
   10.0039   -9.1194    0.0000 C   0  0  0  0  0  0  0  0  0  0  0  0
   10.0090   -9.9479    0.0000 F   0  0  0  0  0  0  0  0  0  0  0  0
   10.7231   -8.7083    0.0000 F   0  0  0  0  0  0  0  0  0  0  0  0
    9.4270   -9.7084    0.0000 F   0  0  0  0  0  0  0  0  0  0  0  0
 12 20  1  0  0  0  0
 20 21  1  0  0  0  0
 20 22  1  0  0  0  0
 20 23  1  0  0  0  0
  4  5  2  0  0  0  0
  8  9  1  0  0  0  0
  1 15  1  0  0  0  0
 15 16  2  0  0  0  0
 15 17  1  0  0  0  0
  5  6  1  0  0  0  0
 17 18  1  0  0  0  0
  9 10  2  0  0  0  0
  3  4  1  0  0  0  0
 10 11  1  0  0  0  0
  8  1  1  0  0  0  0
 19 17  1  0  0  0  0
  6  7  2  0  0  0  0
 11 12  2  0  0  0  0
  7  2  1  0  0  0  0
 12 13  1  0  0  0  0
  2  3  2  0  0  0  0
 13 14  2  0  0  0  0
 14  9  1  0  0  0  0
  6  8  1  0  0  0  0
M  END
> <Molecule Name>
DNDI1423069

> <CDD Number>
CDD-1535378

> <IC50_uM>
> 1.0 (n=1)

$$$$

SketchEl molfile

 33 36  0  0  0  0  0  0  0  0999 V2000
    9.7533   -5.5317    0.0000 O   0  0  0  0  0  0  0  0  0  0  0  0
    9.7730   -6.4398    0.0000 C   0  0  0  0  0  0  0  0  0  0  0  0
    7.0478   -8.0248    0.0000 N   0  0  0  0  0  0  0  0  0  0  0  0
    5.0013   -9.2119    0.0000 C   0  0  0  0  0  0  0  0  0  0  0  0
    5.0000  -10.0012    0.0000 C   0  0  0  0  0  0  0  0  0  0  0  0
    5.6850  -10.3949    0.0000 N   0  0  0  0  0  0  0  0  0  0  0  0
    6.3718  -10.0006    0.0000 C   0  0  0  0  0  0  0  0  0  0  0  0
    6.3686   -9.2078    0.0000 C   0  0  0  0  0  0  0  0  0  0  0  0
    5.6829   -8.8230    0.0000 N   0  0  0  0  0  0  0  0  0  0  0  0
    7.0514   -8.8162    0.0000 C   0  0  0  0  0  0  0  0  0  0  0  0
    7.7330   -9.2016    0.0000 C   0  0  0  0  0  0  0  0  0  0  0  0
    7.7327   -9.9903    0.0000 C   0  0  0  0  0  0  0  0  0  0  0  0
    8.4181  -10.3804    0.0000 C   0  0  0  0  0  0  0  0  0  0  0  0
    9.1020   -9.9888    0.0000 C   0  0  0  0  0  0  0  0  0  0  0  0
    9.0955   -9.1926    0.0000 C   0  0  0  0  0  0  0  0  0  0  0  0
    8.4094   -8.8067    0.0000 C   0  0  0  0  0  0  0  0  0  0  0  0
    7.7307   -7.6285    0.0000 C   0  0  0  0  0  0  0  0  0  0  0  0
    8.4067   -8.0220    0.0000 C   0  0  0  0  0  0  0  0  0  0  0  0
    9.0871   -7.6296    0.0000 C   0  0  0  0  0  0  0  0  0  0  0  0
    9.0884   -6.8426    0.0000 N   0  0  0  0  0  0  0  0  0  0  0  0
    8.4070   -6.4404    0.0000 C   0  0  0  0  0  0  0  0  0  0  0  0
    7.7195   -6.8394    0.0000 C   0  0  0  0  0  0  0  0  0  0  0  0
   10.5925   -6.8968    0.0000 C   0  0  0  0  0  0  0  0  0  0  0  0
   11.3979   -6.4156    0.0000 C   0  0  0  0  0  0  0  0  0  0  0  0
   12.2120   -6.8762    0.0000 C   0  0  0  0  0  0  0  0  0  0  0  0
   13.0169   -6.3958    0.0000 C   0  0  0  0  0  0  0  0  0  0  0  0
   13.0034   -5.4566    0.0000 C   0  0  0  0  0  0  0  0  0  0  0  0
   12.1782   -5.0000    0.0000 C   0  0  0  0  0  0  0  0  0  0  0  0
   11.3767   -5.4830    0.0000 C   0  0  0  0  0  0  0  0  0  0  0  0
    9.7795  -10.3732    0.0000 C   0  0  0  0  0  0  0  0  0  0  0  0
    9.7843  -11.1645    0.0000 F   0  0  0  0  0  0  0  0  0  0  0  0
   10.4665   -9.9805    0.0000 F   0  0  0  0  0  0  0  0  0  0  0  0
    9.2285  -10.9357    0.0000 F   0  0  0  0  0  0  0  0  0  0  0  0
 14 30  1  0  0  0  0
 30 31  1  0  0  0  0
 30 32  1  0  0  0  0
 30 33  1  0  0  0  0
  6  7  2  0  0  0  0
 10 11  1  0  0  0  0
  3 17  1  0  0  0  0
 17 18  1  0  0  0  0
 17 22  1  0  0  0  0
 18 19  1  0  0  0  0
 19 20  1  0  0  0  0
 20 21  1  0  0  0  0
 21 22  1  0  0  0  0
 20  2  1  0  0  0  0
  2  1  2  0  0  0  0
  7  8  1  0  0  0  0
  2 23  1  0  0  0  0
 11 12  2  0  0  0  0
 23 24  1  0  0  0  0
  5  6  1  0  0  0  0
 24 25  2  0  0  0  0
 12 13  1  0  0  0  0
 25 26  1  0  0  0  0
 10  3  1  0  0  0  0
 26 27  2  0  0  0  0
  8  9  2  0  0  0  0
 27 28  1  0  0  0  0
 13 14  2  0  0  0  0
 28 29  2  0  0  0  0
 29 24  1  0  0  0  0
  9  4  1  0  0  0  0
 14 15  1  0  0  0  0
  4  5  2  0  0  0  0
 15 16  2  0  0  0  0
 16 11  1  0  0  0  0
  8 10  1  0  0  0  0
M  END
> <Molecule Name>
DNDI1423070

> <CDD Number>
CDD-1535379

> <IC50_uM>
0.54 (n=1)

$$$$

SketchEl molfile

 32 34  0  0  0  0  0  0  0  0999 V2000
    6.9705   -6.9005    0.0000 O   0  0  0  0  0  0  0  0  0  0  0  0
    7.7767   -7.3476    0.0000 C   0  0  0  0  0  0  0  0  0  0  0  0
    7.7639   -9.7452    0.0000 C   0  0  0  0  0  0  0  0  0  0  0  0
    8.4550   -9.3540    0.0000 C   0  0  0  0  0  0  0  0  0  0  0  0
    8.4627   -8.5607    0.0000 C   0  0  0  0  0  0  0  0  0  0  0  0
    7.7765   -8.1557    0.0000 N   0  0  0  0  0  0  0  0  0  0  0  0
    7.0743   -8.5420    0.0000 C   0  0  0  0  0  0  0  0  0  0  0  0
    7.0689   -9.3508    0.0000 C   0  0  0  0  0  0  0  0  0  0  0  0
    8.5963   -6.8672    0.0000 O   0  0  0  0  0  0  0  0  0  0  0  0
    8.5896   -5.9178    0.0000 C   0  0  0  0  0  0  0  0  0  0  0  0
    9.4097   -5.4444    0.0000 C   0  0  0  0  0  0  0  0  0  0  0  0
    7.7648   -5.4587    0.0000 C   0  0  0  0  0  0  0  0  0  0  0  0
    8.3387   -5.0000    0.0000 C   0  0  0  0  0  0  0  0  0  0  0  0
    7.0751  -10.9534    0.0000 N   0  0  0  0  0  0  0  0  0  0  0  0
    5.0014  -12.1531    0.0000 C   0  0  0  0  0  0  0  0  0  0  0  0
    5.0000  -12.9558    0.0000 C   0  0  0  0  0  0  0  0  0  0  0  0
    5.6943  -13.3536    0.0000 N   0  0  0  0  0  0  0  0  0  0  0  0
    6.3906  -12.9552    0.0000 C   0  0  0  0  0  0  0  0  0  0  0  0
    6.3870  -12.1486    0.0000 C   0  0  0  0  0  0  0  0  0  0  0  0
    5.6920  -11.7606    0.0000 N   0  0  0  0  0  0  0  0  0  0  0  0
    7.0789  -11.7531    0.0000 C   0  0  0  0  0  0  0  0  0  0  0  0
    7.7695  -12.1419    0.0000 C   0  0  0  0  0  0  0  0  0  0  0  0
    7.7692  -12.9439    0.0000 C   0  0  0  0  0  0  0  0  0  0  0  0
    8.4640  -13.3378    0.0000 C   0  0  0  0  0  0  0  0  0  0  0  0
    9.1571  -12.9423    0.0000 C   0  0  0  0  0  0  0  0  0  0  0  0
    9.1499  -12.1372    0.0000 C   0  0  0  0  0  0  0  0  0  0  0  0
    8.4545  -11.7428    0.0000 C   0  0  0  0  0  0  0  0  0  0  0  0
    7.7678  -10.5450    0.0000 C   0  0  0  0  0  0  0  0  0  0  0  0
    9.8432  -13.3299    0.0000 C   0  0  0  0  0  0  0  0  0  0  0  0
    9.8484  -14.1348    0.0000 F   0  0  0  0  0  0  0  0  0  0  0  0
   10.5396  -12.9332    0.0000 F   0  0  0  0  0  0  0  0  0  0  0  0
    9.2845  -13.9012    0.0000 F   0  0  0  0  0  0  0  0  0  0  0  0
 25 29  1  0  0  0  0
 29 30  1  0  0  0  0
 29 31  1  0  0  0  0
 29 32  1  0  0  0  0
  2  9  1  0  0  0  0
  9 10  1  0  0  0  0
 10 11  1  0  0  0  0
 12 10  1  0  0  0  0
 10 13  1  0  0  0  0
 17 18  2  0  0  0  0
 21 22  1  0  0  0  0
 18 19  1  0  0  0  0
 22 23  2  0  0  0  0
 16 17  1  0  0  0  0
 23 24  1  0  0  0  0
 21 14  1  0  0  0  0
 19 20  2  0  0  0  0
 24 25  2  0  0  0  0
 20 15  1  0  0  0  0
 25 26  1  0  0  0  0
 15 16  2  0  0  0  0
 26 27  2  0  0  0  0
 27 22  1  0  0  0  0
 19 21  1  0  0  0  0
  3  4  1  0  0  0  0
 14 28  1  0  0  0  0
 28  3  1  0  0  0  0
  3  8  1  0  0  0  0
  4  5  1  0  0  0  0
  5  6  1  0  0  0  0
  6  7  1  0  0  0  0
  7  8  1  0  0  0  0
  6  2  1  0  0  0  0
  2  1  2  0  0  0  0
M  END
> <Molecule Name>
DNDI1423071

> <CDD Number>
CDD-1535380

> <IC50_uM>
0.076 (n=1)

$$$$

SketchEl molfile

 25 27  0  0  0  0  0  0  0  0999 V2000
    7.1415   -8.7132    0.0000 N   0  0  0  0  0  0  0  0  0  0  0  0
    5.0011   -9.9493    0.0000 N   0  0  0  0  0  0  0  0  0  0  0  0
    5.0000  -10.7757    0.0000 C   0  0  0  0  0  0  0  0  0  0  0  0
    5.7145  -11.1860    0.0000 N   0  0  0  0  0  0  0  0  0  0  0  0
    6.4348  -10.7752    0.0000 C   0  0  0  0  0  0  0  0  0  0  0  0
    6.4319   -9.9457    0.0000 C   0  0  0  0  0  0  0  0  0  0  0  0
    5.7127   -9.5433    0.0000 C   0  0  0  0  0  0  0  0  0  0  0  0
    7.1446   -9.5372    0.0000 C   0  0  0  0  0  0  0  0  0  0  0  0
    7.8561   -9.9362    0.0000 C   0  0  0  0  0  0  0  0  0  0  0  0
    7.8559  -10.7662    0.0000 C   0  0  0  0  0  0  0  0  0  0  0  0
    8.5749  -11.1734    0.0000 C   0  0  0  0  0  0  0  0  0  0  0  0
    9.2885  -10.7648    0.0000 C   0  0  0  0  0  0  0  0  0  0  0  0
    9.2828   -9.9325    0.0000 C   0  0  0  0  0  0  0  0  0  0  0  0
    8.5632   -9.5248    0.0000 C   0  0  0  0  0  0  0  0  0  0  0  0
   10.0053  -11.1751    0.0000 Cl  0  0  0  0  0  0  0  0  0  0  0  0
    7.8541   -8.3020    0.0000 C   0  0  0  0  0  0  0  0  0  0  0  0
    7.8525   -7.4767    0.0000 C   0  0  0  0  0  0  0  0  0  0  0  0
    7.1392   -7.0643    0.0000 N   0  0  0  0  0  0  0  0  0  0  0  0
    6.4220   -7.4822    0.0000 C   0  0  0  0  0  0  0  0  0  0  0  0
    6.4223   -8.3083    0.0000 C   0  0  0  0  0  0  0  0  0  0  0  0
    7.1385   -6.2400    0.0000 S   0  0  0  0  0  0  0  0  0  0  0  0
    7.8516   -5.8273    0.0000 O   0  0  0  0  0  0  0  0  0  0  0  0
    6.4206   -5.8285    0.0000 C   0  0  0  0  0  0  0  0  0  0  0  0
    7.9328   -6.4511    0.0000 O   0  0  0  0  0  0  0  0  0  0  0  0
    6.4200   -5.0000    0.0000 C   0  0  0  0  0  0  0  0  0  0  0  0
 12 13  1  0  0  0  0
  2  3  2  0  0  0  0
 13 14  2  0  0  0  0
 14  9  1  0  0  0  0
  6  8  1  0  0  0  0
 12 15  1  0  0  0  0
  1 16  1  0  0  0  0
  4  5  2  0  0  0  0
  8  9  1  0  0  0  0
  5  6  1  0  0  0  0
  9 10  2  0  0  0  0
  3  4  1  0  0  0  0
  1 20  1  0  0  0  0
 16 17  1  0  0  0  0
 17 18  1  0  0  0  0
 18 19  1  0  0  0  0
 19 20  1  0  0  0  0
 10 11  1  0  0  0  0
 18 21  1  0  0  0  0
  8  1  1  0  0  0  0
 21 22  2  0  0  0  0
  6  7  2  0  0  0  0
 21 23  1  0  0  0  0
 11 12  2  0  0  0  0
 21 24  2  0  0  0  0
  7  2  1  0  0  0  0
 23 25  1  0  0  0  0
M  END
> <Molecule Name>
DNDI1423072

> <CDD Number>
CDD-1535381

> <IC50_uM>
0.26 (n=1)

$$$$

SketchEl molfile

 25 27  0  0  0  0  0  0  0  0999 V2000
    7.1421   -8.7142    0.0000 N   0  0  0  0  0  0  0  0  0  0  0  0
    5.0011   -9.9506    0.0000 N   0  0  0  0  0  0  0  0  0  0  0  0
    5.0000  -10.7772    0.0000 C   0  0  0  0  0  0  0  0  0  0  0  0
    5.7147  -11.1876    0.0000 N   0  0  0  0  0  0  0  0  0  0  0  0
    6.4352  -10.7767    0.0000 C   0  0  0  0  0  0  0  0  0  0  0  0
    6.4323   -9.9470    0.0000 C   0  0  0  0  0  0  0  0  0  0  0  0
    5.7129   -9.5444    0.0000 C   0  0  0  0  0  0  0  0  0  0  0  0
    7.1452   -9.5384    0.0000 C   0  0  0  0  0  0  0  0  0  0  0  0
    7.8569   -9.9375    0.0000 C   0  0  0  0  0  0  0  0  0  0  0  0
    7.8567  -10.7677    0.0000 C   0  0  0  0  0  0  0  0  0  0  0  0
    8.5759  -11.1750    0.0000 C   0  0  0  0  0  0  0  0  0  0  0  0
    9.2897  -10.7663    0.0000 C   0  0  0  0  0  0  0  0  0  0  0  0
    9.2839   -9.9337    0.0000 C   0  0  0  0  0  0  0  0  0  0  0  0
    8.5642   -9.5260    0.0000 C   0  0  0  0  0  0  0  0  0  0  0  0
   10.0066  -11.1767    0.0000 Cl  0  0  0  0  0  0  0  0  0  0  0  0
    7.8548   -8.3028    0.0000 C   0  0  0  0  0  0  0  0  0  0  0  0
    7.8533   -7.4773    0.0000 C   0  0  0  0  0  0  0  0  0  0  0  0
    7.1398   -7.0648    0.0000 N   0  0  0  0  0  0  0  0  0  0  0  0
    6.4224   -7.4828    0.0000 C   0  0  0  0  0  0  0  0  0  0  0  0
    6.4226   -8.3091    0.0000 C   0  0  0  0  0  0  0  0  0  0  0  0
    7.1391   -6.2403    0.0000 C   0  0  0  0  0  0  0  0  0  0  0  0
    6.4210   -5.8286    0.0000 C   0  0  0  0  0  0  0  0  0  0  0  0
    6.4204   -5.0000    0.0000 C   0  0  0  0  0  0  0  0  0  0  0  0
    7.8486   -5.8289    0.0000 O   0  0  0  0  0  0  0  0  0  0  0  0
    5.7116   -6.2400    0.0000 C   0  0  0  0  0  0  0  0  0  0  0  0
  2  3  2  0  0  0  0
 13 14  2  0  0  0  0
 14  9  1  0  0  0  0
  6  8  1  0  0  0  0
 12 15  1  0  0  0  0
  1 16  1  0  0  0  0
  4  5  2  0  0  0  0
  8  9  1  0  0  0  0
  5  6  1  0  0  0  0
  9 10  2  0  0  0  0
  3  4  1  0  0  0  0
  1 20  1  0  0  0  0
 16 17  1  0  0  0  0
 17 18  1  0  0  0  0
 18 19  1  0  0  0  0
 19 20  1  0  0  0  0
 10 11  1  0  0  0  0
 18 21  1  0  0  0  0
  8  1  1  0  0  0  0
  6  7  2  0  0  0  0
 21 22  1  0  0  0  0
 11 12  2  0  0  0  0
  7  2  1  0  0  0  0
 22 23  1  0  0  0  0
 21 24  2  0  0  0  0
 12 13  1  0  0  0  0
 22 25  1  0  0  0  0
M  END
> <Molecule Name>
DNDI1423073

> <CDD Number>
CDD-1535382

> <IC50_uM>
0.37 (n=1)

$$$$

SketchEl molfile

 29 32  0  0  0  0  0  0  0  0999 V2000
    7.1515   -9.1204    0.0000 N   0  0  0  0  0  0  0  0  0  0  0  0
    5.0117  -10.3561    0.0000 N   0  0  0  0  0  0  0  0  0  0  0  0
    5.0106  -11.1823    0.0000 C   0  0  0  0  0  0  0  0  0  0  0  0
    5.7249  -11.5925    0.0000 N   0  0  0  0  0  0  0  0  0  0  0  0
    6.4450  -11.1818    0.0000 C   0  0  0  0  0  0  0  0  0  0  0  0
    6.4421  -10.3525    0.0000 C   0  0  0  0  0  0  0  0  0  0  0  0
    5.7231   -9.9502    0.0000 C   0  0  0  0  0  0  0  0  0  0  0  0
    7.1546   -9.9442    0.0000 C   0  0  0  0  0  0  0  0  0  0  0  0
    7.8659  -10.3431    0.0000 C   0  0  0  0  0  0  0  0  0  0  0  0
    7.8657  -11.1728    0.0000 C   0  0  0  0  0  0  0  0  0  0  0  0
    8.5845  -11.5799    0.0000 C   0  0  0  0  0  0  0  0  0  0  0  0
    9.2979  -11.1714    0.0000 C   0  0  0  0  0  0  0  0  0  0  0  0
    9.2922  -10.3393    0.0000 C   0  0  0  0  0  0  0  0  0  0  0  0
    8.5728   -9.9318    0.0000 C   0  0  0  0  0  0  0  0  0  0  0  0
   10.0145  -11.5816    0.0000 Cl  0  0  0  0  0  0  0  0  0  0  0  0
    7.8639   -8.7093    0.0000 C   0  0  0  0  0  0  0  0  0  0  0  0
    7.8623   -7.8842    0.0000 C   0  0  0  0  0  0  0  0  0  0  0  0
    7.1492   -7.4719    0.0000 N   0  0  0  0  0  0  0  0  0  0  0  0
    6.4322   -7.8897    0.0000 C   0  0  0  0  0  0  0  0  0  0  0  0
    6.4324   -8.7155    0.0000 C   0  0  0  0  0  0  0  0  0  0  0  0
    7.1485   -6.6479    0.0000 S   0  0  0  0  0  0  0  0  0  0  0  0
    7.8614   -6.2352    0.0000 O   0  0  0  0  0  0  0  0  0  0  0  0
    6.4308   -6.2364    0.0000 C   0  0  0  0  0  0  0  0  0  0  0  0
    7.9426   -6.8589    0.0000 O   0  0  0  0  0  0  0  0  0  0  0  0
    6.4330   -5.4114    0.0000 C   0  0  0  0  0  0  0  0  0  0  0  0
    5.7162   -5.0000    0.0000 C   0  0  0  0  0  0  0  0  0  0  0  0
    5.0000   -5.4159    0.0000 C   0  0  0  0  0  0  0  0  0  0  0  0
    5.0052   -6.2474    0.0000 C   0  0  0  0  0  0  0  0  0  0  0  0
    5.7226   -6.6551    0.0000 C   0  0  0  0  0  0  0  0  0  0  0  0
  6  8  1  0  0  0  0
 12 15  1  0  0  0  0
  1 16  1  0  0  0  0
  4  5  2  0  0  0  0
  8  9  1  0  0  0  0
  5  6  1  0  0  0  0
  9 10  2  0  0  0  0
  3  4  1  0  0  0  0
  1 20  1  0  0  0  0
 16 17  1  0  0  0  0
 17 18  1  0  0  0  0
 18 19  1  0  0  0  0
 19 20  1  0  0  0  0
 10 11  1  0  0  0  0
 18 21  1  0  0  0  0
  8  1  1  0  0  0  0
 21 22  2  0  0  0  0
  6  7  2  0  0  0  0
 21 23  1  0  0  0  0
 11 12  2  0  0  0  0
 21 24  2  0  0  0  0
  7  2  1  0  0  0  0
 23 25  2  0  0  0  0
 12 13  1  0  0  0  0
 25 26  1  0  0  0  0
  2  3  2  0  0  0  0
 26 27  2  0  0  0  0
 13 14  2  0  0  0  0
 27 28  1  0  0  0  0
 14  9  1  0  0  0  0
 28 29  2  0  0  0  0
 29 23  1  0  0  0  0
M  END
> <Molecule Name>
DNDI1423074

> <CDD Number>
CDD-1535383

> <IC50_uM>
0.066 (n=1)

$$$$

SketchEl molfile

 27 29  0  0  0  0  0  0  0  0999 V2000
    7.1383   -7.9151    0.0000 N   0  0  0  0  0  0  0  0  0  0  0  0
    5.0015   -9.1513    0.0000 C   0  0  0  0  0  0  0  0  0  0  0  0
    5.0000   -9.9785    0.0000 C   0  0  0  0  0  0  0  0  0  0  0  0
    5.7154  -10.3884    0.0000 N   0  0  0  0  0  0  0  0  0  0  0  0
    6.4329   -9.9779    0.0000 C   0  0  0  0  0  0  0  0  0  0  0  0
    6.4293   -9.1467    0.0000 C   0  0  0  0  0  0  0  0  0  0  0  0
    5.7131   -8.7469    0.0000 N   0  0  0  0  0  0  0  0  0  0  0  0
    7.1423   -8.7392    0.0000 C   0  0  0  0  0  0  0  0  0  0  0  0
    7.8539   -9.1398    0.0000 C   0  0  0  0  0  0  0  0  0  0  0  0
    7.8536   -9.9663    0.0000 C   0  0  0  0  0  0  0  0  0  0  0  0
    8.5695  -10.3721    0.0000 C   0  0  0  0  0  0  0  0  0  0  0  0
    9.2837   -9.9645    0.0000 C   0  0  0  0  0  0  0  0  0  0  0  0
    9.2764   -9.1350    0.0000 C   0  0  0  0  0  0  0  0  0  0  0  0
    8.5597   -8.7286    0.0000 C   0  0  0  0  0  0  0  0  0  0  0  0
    7.8521   -7.4943    0.0000 C   0  0  0  0  0  0  0  0  0  0  0  0
    8.5734   -7.9020    0.0000 O   0  0  0  0  0  0  0  0  0  0  0  0
    7.8446   -6.6657    0.0000 C   0  0  0  0  0  0  0  0  0  0  0  0
    8.5584   -6.2449    0.0000 C   0  0  0  0  0  0  0  0  0  0  0  0
    9.2767   -6.6572    0.0000 C   0  0  0  0  0  0  0  0  0  0  0  0
    9.9901   -6.2371    0.0000 C   0  0  0  0  0  0  0  0  0  0  0  0
    9.9830   -5.4076    0.0000 C   0  0  0  0  0  0  0  0  0  0  0  0
    9.2566   -5.0000    0.0000 C   0  0  0  0  0  0  0  0  0  0  0  0
    8.5462   -5.4225    0.0000 C   0  0  0  0  0  0  0  0  0  0  0  0
    9.9908  -10.3640    0.0000 C   0  0  0  0  0  0  0  0  0  0  0  0
    9.9961  -11.1934    0.0000 F   0  0  0  0  0  0  0  0  0  0  0  0
   10.7084   -9.9552    0.0000 F   0  0  0  0  0  0  0  0  0  0  0  0
    9.4150  -10.9527    0.0000 F   0  0  0  0  0  0  0  0  0  0  0  0
 12 24  1  0  0  0  0
 24 25  1  0  0  0  0
 24 26  1  0  0  0  0
 24 27  1  0  0  0  0
  6  8  1  0  0  0  0
  1 15  1  0  0  0  0
 15 16  2  0  0  0  0
  4  5  2  0  0  0  0
 15 17  1  0  0  0  0
  8  9  1  0  0  0  0
 17 18  1  0  0  0  0
  5  6  1  0  0  0  0
 18 19  2  0  0  0  0
  9 10  2  0  0  0  0
 19 20  1  0  0  0  0
  3  4  1  0  0  0  0
 20 21  2  0  0  0  0
 10 11  1  0  0  0  0
 21 22  1  0  0  0  0
  8  1  1  0  0  0  0
 22 23  2  0  0  0  0
 23 18  1  0  0  0  0
  6  7  2  0  0  0  0
 11 12  2  0  0  0  0
  7  2  1  0  0  0  0
 12 13  1  0  0  0  0
  2  3  2  0  0  0  0
 13 14  2  0  0  0  0
 14  9  1  0  0  0  0
M  END
> <Molecule Name>
DNDI1433759

> <CDD Number>
CDD-1535384

> <IC50_uM>
> 1.0 (n=1)

$$$$

SketchEl molfile

 26 28  0  0  0  0  0  0  0  0999 V2000
    5.7194   -7.9031    0.0000 C   0  0  0  0  0  0  0  0  0  0  0  0
    5.7183   -8.7344    0.0000 C   0  0  0  0  0  0  0  0  0  0  0  0
    6.4365   -9.1493    0.0000 C   0  0  0  0  0  0  0  0  0  0  0  0
    7.1564   -8.7339    0.0000 C   0  0  0  0  0  0  0  0  0  0  0  0
    7.1536   -7.8994    0.0000 C   0  0  0  0  0  0  0  0  0  0  0  0
    6.4347   -7.4883    0.0000 C   0  0  0  0  0  0  0  0  0  0  0  0
    7.8699   -7.4822    0.0000 C   0  0  0  0  0  0  0  0  0  0  0  0
    8.5894   -7.8940    0.0000 C   0  0  0  0  0  0  0  0  0  0  0  0
    7.8668   -6.6532    0.0000 C   0  0  0  0  0  0  0  0  0  0  0  0
    8.4842   -7.1118    0.0000 O   0  0  0  0  0  0  0  0  0  0  0  0
    8.5892   -8.7206    0.0000 C   0  0  0  0  0  0  0  0  0  0  0  0
    9.3078   -9.1323    0.0000 C   0  0  0  0  0  0  0  0  0  0  0  0
   10.0252   -8.7151    0.0000 C   0  0  0  0  0  0  0  0  0  0  0  0
   10.0194   -7.8818    0.0000 C   0  0  0  0  0  0  0  0  0  0  0  0
    9.3001   -7.4738    0.0000 C   0  0  0  0  0  0  0  0  0  0  0  0
    8.5850   -6.2409    0.0000 C   0  0  0  0  0  0  0  0  0  0  0  0
    8.5822   -5.4126    0.0000 C   0  0  0  0  0  0  0  0  0  0  0  0
    7.8621   -5.0000    0.0000 C   0  0  0  0  0  0  0  0  0  0  0  0
    7.1434   -5.4217    0.0000 N   0  0  0  0  0  0  0  0  0  0  0  0
    7.1497   -6.2485    0.0000 C   0  0  0  0  0  0  0  0  0  0  0  0
    5.0000   -9.1484    0.0000 Cl  0  0  0  0  0  0  0  0  0  0  0  0
   10.7342   -7.4621    0.0000 C   0  0  0  0  0  0  0  0  0  0  0  0
   11.4552   -7.8713    0.0000 N   0  0  0  0  0  0  0  0  0  0  0  0
   10.7282   -6.6331    0.0000 O   0  0  0  0  0  0  0  0  0  0  0  0
   11.4612   -8.7003    0.0000 C   0  0  0  0  0  0  0  0  0  0  0  0
   12.1701   -7.4516    0.0000 C   0  0  0  0  0  0  0  0  0  0  0  0
 12 13  2  0  0  0  0
  1  2  2  0  0  0  0
 13 14  1  0  0  0  0
  5  7  1  0  0  0  0
 14 15  2  0  0  0  0
 15  8  1  0  0  0  0
  3  4  2  0  0  0  0
  9 16  2  0  0  0  0
  7  8  1  0  0  0  0
 16 17  1  0  0  0  0
 17 18  2  0  0  0  0
  7  9  1  0  0  0  0
 18 19  1  0  0  0  0
  4  5  1  0  0  0  0
 19 20  2  0  0  0  0
 20  9  1  0  0  0  0
  7 10  1  0  0  0  0
  2 21  1  0  0  0  0
  2  3  1  0  0  0  0
 14 22  1  0  0  0  0
  8 11  2  0  0  0  0
 22 23  1  0  0  0  0
  5  6  2  0  0  0  0
 22 24  2  0  0  0  0
 11 12  1  0  0  0  0
 23 25  1  0  0  0  0
  6  1  1  0  0  0  0
 23 26  1  0  0  0  0
M  END
> <Molecule Name>
DNDI1433760

> <CDD Number>
CDD-1535385

> <IC50_uM>
0.18 (n=1)

$$$$

SketchEl molfile

 38 39  0  0  0  0  0  0  0  0999 V2000
    7.1353  -10.5236    0.0000 C   0  0  0  0  0  0  0  0  0  0  0  0
    7.1353   -9.6994    0.0000 N   0  0  0  0  0  0  0  0  0  0  0  0
    6.4236  -10.9356    0.0000 C   0  0  0  0  0  0  0  0  0  0  0  0
    7.8513  -10.9356    0.0000 C   0  0  0  0  0  0  0  0  0  0  0  0
    5.7159  -12.1677    0.0000 N   0  0  0  0  0  0  0  0  0  0  0  0
    7.8471  -11.7598    0.0000 C   0  0  0  0  0  0  0  0  0  0  0  0
    8.5339  -10.4903    0.0000 C   0  0  0  0  0  0  0  0  0  0  0  0
    9.2749  -11.7598    0.0000 C   0  0  0  0  0  0  0  0  0  0  0  0
    8.5589  -12.1719    0.0000 C   0  0  0  0  0  0  0  0  0  0  0  0
    9.2707  -10.9315    0.0000 C   0  0  0  0  0  0  0  0  0  0  0  0
    6.4277  -11.7557    0.0000 C   0  0  0  0  0  0  0  0  0  0  0  0
    5.7118  -10.5194    0.0000 C   0  0  0  0  0  0  0  0  0  0  0  0
    5.0000  -11.7557    0.0000 C   0  0  0  0  0  0  0  0  0  0  0  0
    5.0000  -10.9315    0.0000 C   0  0  0  0  0  0  0  0  0  0  0  0
    9.9894  -12.1706    0.0000 Cl  0  0  0  0  0  0  0  0  0  0  0  0
    7.8514   -9.2892    0.0000 C   0  0  0  0  0  0  0  0  0  0  0  0
    7.8518   -8.4658    0.0000 C   0  0  0  0  0  0  0  0  0  0  0  0
    7.1375   -8.0529    0.0000 N   0  0  0  0  0  0  0  0  0  0  0  0
    6.4214   -8.4694    0.0000 C   0  0  0  0  0  0  0  0  0  0  0  0
    6.4245   -9.2914    0.0000 C   0  0  0  0  0  0  0  0  0  0  0  0
    7.1364   -7.2287    0.0000 S   0  0  0  0  0  0  0  0  0  0  0  0
    7.8496   -6.8157    0.0000 O   0  0  0  0  0  0  0  0  0  0  0  0
    8.5181   -9.6662    0.0000 F   0  0  0  0  0  0  0  0  0  0  0  0
    6.4221   -6.8176    0.0000 C   0  0  0  0  0  0  0  0  0  0  0  0
    7.9328   -7.4409    0.0000 O   0  0  0  0  0  0  0  0  0  0  0  0
   10.9981   -6.2362    0.0000 C   0  0  0  0  0  0  0  0  0  0  0  0
   11.7119   -5.8241    0.0000 C   0  0  0  0  0  0  0  0  0  0  0  0
   10.9981   -7.0604    0.0000 C   0  0  0  0  0  0  0  0  0  0  0  0
   12.4256   -6.2362    0.0000 O   0  0  0  0  0  0  0  0  0  0  0  0
   11.7119   -5.0000    0.0000 O   0  0  0  0  0  0  0  0  0  0  0  0
   10.2844   -7.4725    0.0000 C   0  0  0  0  0  0  0  0  0  0  0  0
   11.7119   -7.4725    0.0000 C   0  0  0  0  0  0  0  0  0  0  0  0
   11.7119   -8.2966    0.0000 C   0  0  0  0  0  0  0  0  0  0  0  0
   10.9981   -8.7087    0.0000 O   0  0  0  0  0  0  0  0  0  0  0  0
   12.4256   -8.7087    0.0000 O   0  0  0  0  0  0  0  0  0  0  0  0
   10.4112   -6.4693    0.0000 O   0  0  0  0  0  0  0  0  0  0  0  0
    9.5706   -7.0604    0.0000 O   0  0  0  0  0  0  0  0  0  0  0  0
   10.2844   -8.2966    0.0000 O   0  0  0  0  0  0  0  0  0  0  0  0
 16 17  1  0  0  0  0
  4  1  1  0  0  0  0
 17 18  1  0  0  0  0
  5 11  2  0  0  0  0
 18 19  1  0  0  0  0
  6  4  2  0  0  0  0
 19 20  1  0  0  0  0
 20  2  1  0  0  0  0
  7  4  1  0  0  0  0
  8 10  1  0  0  0  0
  9  6  1  0  0  0  0
 10  7  2  0  0  0  0
 11  3  1  0  0  0  0
 12  3  2  0  0  0  0
  8 15  1  0  0  0  0
 13 14  2  0  0  0  0
 14 12  1  0  0  0  0
 18 21  1  0  0  0  0
  8  9  2  0  0  0  0
 21 22  2  0  0  0  0
  5 13  1  0  0  0  0
  2  1  1  0  0  0  0
  7 23  1  0  0  0  0
  2 16  1  0  0  0  0
 21 24  1  0  0  0  0
  3  1  1  0  0  0  0
 21 25  2  0  0  0  0
 26 27  1  0  0  0  0
 26 28  1  0  0  0  0
 27 29  1  0  0  0  0
 27 30  2  0  0  0  0
 28 31  1  0  0  0  0
 28 32  1  0  0  0  0
 32 33  1  0  0  0  0
 33 34  2  0  0  0  0
 33 35  1  0  0  0  0
 28 36  1  0  0  0  0
 31 37  1  0  0  0  0
 31 38  2  0  0  0  0
M  END
> <Molecule Name>
DNDI1433761

> <CDD Number>
CDD-1535386

> <IC50_uM>
0.0620752003621414 ร/รท 1.55970073406697 (n=2)

$$$$

SketchEl molfile

 22 23  0  0  0  0  0  0  0  0999 V2000
    7.1403   -6.6717    0.0000 N   0  0  0  0  0  0  0  0  0  0  0  0
    5.0015   -7.9092    0.0000 C   0  0  0  0  0  0  0  0  0  0  0  0
    5.0000   -8.7371    0.0000 C   0  0  0  0  0  0  0  0  0  0  0  0
    5.7161   -9.1473    0.0000 N   0  0  0  0  0  0  0  0  0  0  0  0
    6.4342   -8.7365    0.0000 C   0  0  0  0  0  0  0  0  0  0  0  0
    6.4306   -7.9045    0.0000 C   0  0  0  0  0  0  0  0  0  0  0  0
    5.7138   -7.5044    0.0000 N   0  0  0  0  0  0  0  0  0  0  0  0
    7.1442   -7.4966    0.0000 C   0  0  0  0  0  0  0  0  0  0  0  0
    7.8565   -7.8976    0.0000 C   0  0  0  0  0  0  0  0  0  0  0  0
    7.8562   -8.7248    0.0000 C   0  0  0  0  0  0  0  0  0  0  0  0
    8.5728   -9.1311    0.0000 C   0  0  0  0  0  0  0  0  0  0  0  0
    9.2877   -8.7231    0.0000 C   0  0  0  0  0  0  0  0  0  0  0  0
    9.2803   -7.8928    0.0000 C   0  0  0  0  0  0  0  0  0  0  0  0
    8.5630   -7.4860    0.0000 C   0  0  0  0  0  0  0  0  0  0  0  0
    7.8547   -6.2505    0.0000 C   0  0  0  0  0  0  0  0  0  0  0  0
    8.5767   -6.6587    0.0000 O   0  0  0  0  0  0  0  0  0  0  0  0
    7.8472   -5.4212    0.0000 C   0  0  0  0  0  0  0  0  0  0  0  0
    8.5617   -5.0000    0.0000 C   0  0  0  0  0  0  0  0  0  0  0  0
    9.9953   -9.1229    0.0000 C   0  0  0  0  0  0  0  0  0  0  0  0
   10.0007   -9.9531    0.0000 F   0  0  0  0  0  0  0  0  0  0  0  0
   10.7136   -8.7138    0.0000 F   0  0  0  0  0  0  0  0  0  0  0  0
    9.4190   -9.7121    0.0000 F   0  0  0  0  0  0  0  0  0  0  0  0
 12 19  1  0  0  0  0
 19 20  1  0  0  0  0
 19 21  1  0  0  0  0
 19 22  1  0  0  0  0
  8  9  1  0  0  0  0
 17 18  1  0  0  0  0
  5  6  1  0  0  0  0
  9 10  2  0  0  0  0
  3  4  1  0  0  0  0
 10 11  1  0  0  0  0
  8  1  1  0  0  0  0
  6  7  2  0  0  0  0
 11 12  2  0  0  0  0
  7  2  1  0  0  0  0
 12 13  1  0  0  0  0
  2  3  2  0  0  0  0
 13 14  2  0  0  0  0
 14  9  1  0  0  0  0
  6  8  1  0  0  0  0
  1 15  1  0  0  0  0
 15 16  2  0  0  0  0
  4  5  2  0  0  0  0
 15 17  1  0  0  0  0
M  END
> <Molecule Name>
DNDI1433762

> <CDD Number>
CDD-1535387

> <IC50_uM>
> 1.0 (n=1)

$$$$

SketchEl molfile

 31 32  0  0  0  0  0  0  0  0999 V2000
    7.8957   -5.8657    0.0000 S   0  0  0  0  0  0  0  0  0  0  0  0
    7.0020   -5.7253    0.0000 O   0  0  0  0  0  0  0  0  0  0  0  0
    8.6730   -5.4404    0.0000 C   0  0  0  0  0  0  0  0  0  0  0  0
    7.5667   -5.0000    0.0000 O   0  0  0  0  0  0  0  0  0  0  0  0
    7.1632   -9.6100    0.0000 N   0  0  0  0  0  0  0  0  0  0  0  0
    5.0012  -10.8608    0.0000 C   0  0  0  0  0  0  0  0  0  0  0  0
    5.0000  -11.6971    0.0000 C   0  0  0  0  0  0  0  0  0  0  0  0
    5.7248  -12.1122    0.0000 N   0  0  0  0  0  0  0  0  0  0  0  0
    6.4469  -11.6966    0.0000 C   0  0  0  0  0  0  0  0  0  0  0  0
    6.4438  -10.8569    0.0000 C   0  0  0  0  0  0  0  0  0  0  0  0
    5.7229  -10.4458    0.0000 N   0  0  0  0  0  0  0  0  0  0  0  0
    7.1621  -10.4438    0.0000 C   0  0  0  0  0  0  0  0  0  0  0  0
    7.8837  -10.8601    0.0000 C   0  0  0  0  0  0  0  0  0  0  0  0
    7.8835  -11.6958    0.0000 C   0  0  0  0  0  0  0  0  0  0  0  0
    8.6087  -12.1119    0.0000 C   0  0  0  0  0  0  0  0  0  0  0  0
    9.3280  -11.6988    0.0000 C   0  0  0  0  0  0  0  0  0  0  0  0
    9.3307  -10.8605    0.0000 C   0  0  0  0  0  0  0  0  0  0  0  0
    8.6094  -10.4438    0.0000 C   0  0  0  0  0  0  0  0  0  0  0  0
    7.8838   -9.1919    0.0000 C   0  0  0  0  0  0  0  0  0  0  0  0
    7.8849   -8.3581    0.0000 C   0  0  0  0  0  0  0  0  0  0  0  0
    8.6099   -7.9491    0.0000 C   0  0  0  0  0  0  0  0  0  0  0  0
    8.6087   -7.1192    0.0000 C   0  0  0  0  0  0  0  0  0  0  0  0
    7.8912   -6.6994    0.0000 N   0  0  0  0  0  0  0  0  0  0  0  0
    7.1687   -7.1118    0.0000 C   0  0  0  0  0  0  0  0  0  0  0  0
    7.1637   -7.9484    0.0000 C   0  0  0  0  0  0  0  0  0  0  0  0
   10.0547  -12.1185    0.0000 C   0  0  0  0  0  0  0  0  0  0  0  0
   10.0592  -12.7739    0.0000 F   0  0  0  0  0  0  0  0  0  0  0  0
   10.6208  -11.7936    0.0000 F   0  0  0  0  0  0  0  0  0  0  0  0
    9.5986  -12.5809    0.0000 F   0  0  0  0  0  0  0  0  0  0  0  0
   10.5828   -8.9079    0.0000 Cl  0  0  0  0  0  0  0  0  0  0  0  0
    9.8182   -9.3493    0.0000 H   0  0  0  0  0  0  0  0  0  0  0  0
 16 26  1  0  0  0  0
 26 27  1  0  0  0  0
 26 28  1  0  0  0  0
 26 29  1  0  0  0  0
 10 12  1  0  0  0  0
  8  9  2  0  0  0  0
 12 13  1  0  0  0  0
  9 10  1  0  0  0  0
 13 14  2  0  0  0  0
  7  8  1  0  0  0  0
  1  3  1  0  0  0  0
  5 19  1  0  0  0  0
  1  4  2  0  0  0  0
 19 20  1  0  0  0  0
 20 21  1  0  0  0  0
  1  2  2  0  0  0  0
 14 15  1  0  0  0  0
 12  5  1  0  0  0  0
 10 11  2  0  0  0  0
 20 25  1  0  0  0  0
 21 22  1  0  0  0  0
 22 23  1  0  0  0  0
 23 24  1  0  0  0  0
 24 25  1  0  0  0  0
 23  1  1  0  0  0  0
 15 16  2  0  0  0  0
 11  6  1  0  0  0  0
 16 17  1  0  0  0  0
  6  7  2  0  0  0  0
 17 18  2  0  0  0  0
 18 13  1  0  0  0  0
 31 30  1  0  0  0  0
M  END
> <Molecule Name>
DNDI1433763

> <CDD Number>
CDD-1535388

> <IC50_uM>
0.45 (n=1)

$$$$

SketchEl molfile

 29 30  0  0  0  0  0  0  0  0999 V2000
    7.1224   -8.6784    0.0000 N   0  0  0  0  0  0  0  0  0  0  0  0
    5.0015   -9.9055    0.0000 C   0  0  0  0  0  0  0  0  0  0  0  0
    5.0000  -10.7265    0.0000 C   0  0  0  0  0  0  0  0  0  0  0  0
    5.7101  -11.1333    0.0000 N   0  0  0  0  0  0  0  0  0  0  0  0
    6.4223  -10.7259    0.0000 C   0  0  0  0  0  0  0  0  0  0  0  0
    6.4187   -9.9009    0.0000 C   0  0  0  0  0  0  0  0  0  0  0  0
    5.7078   -9.5041    0.0000 N   0  0  0  0  0  0  0  0  0  0  0  0
    7.1263   -9.4964    0.0000 C   0  0  0  0  0  0  0  0  0  0  0  0
    7.8327   -9.8941    0.0000 C   0  0  0  0  0  0  0  0  0  0  0  0
    7.8324  -10.7144    0.0000 C   0  0  0  0  0  0  0  0  0  0  0  0
    8.5429  -11.1172    0.0000 C   0  0  0  0  0  0  0  0  0  0  0  0
    9.2519  -10.7127    0.0000 C   0  0  0  0  0  0  0  0  0  0  0  0
    9.2446   -9.8893    0.0000 C   0  0  0  0  0  0  0  0  0  0  0  0
    8.5333   -9.4859    0.0000 C   0  0  0  0  0  0  0  0  0  0  0  0
    7.8300   -8.2705    0.0000 C   0  0  0  0  0  0  0  0  0  0  0  0
    7.8281   -7.4560    0.0000 C   0  0  0  0  0  0  0  0  0  0  0  0
    7.1195   -7.0466    0.0000 C   0  0  0  0  0  0  0  0  0  0  0  0
    6.4113   -7.4578    0.0000 C   0  0  0  0  0  0  0  0  0  0  0  0
    6.4116   -8.2784    0.0000 C   0  0  0  0  0  0  0  0  0  0  0  0
    7.1187   -6.2283    0.0000 N   0  0  0  0  0  0  0  0  0  0  0  0
    7.8269   -5.8183    0.0000 C   0  0  0  0  0  0  0  0  0  0  0  0
    7.8261   -5.0000    0.0000 O   0  0  0  0  0  0  0  0  0  0  0  0
    8.5361   -6.2268    0.0000 C   0  0  0  0  0  0  0  0  0  0  0  0
    9.9537  -11.1091    0.0000 C   0  0  0  0  0  0  0  0  0  0  0  0
    9.9590  -11.9324    0.0000 F   0  0  0  0  0  0  0  0  0  0  0  0
   10.6659  -10.7034    0.0000 F   0  0  0  0  0  0  0  0  0  0  0  0
    9.3822  -11.6934    0.0000 F   0  0  0  0  0  0  0  0  0  0  0  0
    9.6341   -7.8738    0.0000 Cl  0  0  0  0  0  0  0  0  0  0  0  0
    8.7291   -8.3962    0.0000 H   0  0  0  0  0  0  0  0  0  0  0  0
 12 24  1  0  0  0  0
 24 25  1  0  0  0  0
 24 26  1  0  0  0  0
 24 27  1  0  0  0  0
  4  5  2  0  0  0  0
  1 15  1  0  0  0  0
  8  9  1  0  0  0  0
  5  6  1  0  0  0  0
  9 10  2  0  0  0  0
  3  4  1  0  0  0  0
  1 19  1  0  0  0  0
 15 16  1  0  0  0  0
 16 17  1  0  0  0  0
 17 18  1  0  0  0  0
 18 19  1  0  0  0  0
 10 11  1  0  0  0  0
 17 20  1  0  0  0  0
  8  1  1  0  0  0  0
 20 21  1  0  0  0  0
  6  7  2  0  0  0  0
 21 22  2  0  0  0  0
 11 12  2  0  0  0  0
 21 23  1  0  0  0  0
  7  2  1  0  0  0  0
 12 13  1  0  0  0  0
  2  3  2  0  0  0  0
 13 14  2  0  0  0  0
 14  9  1  0  0  0  0
  6  8  1  0  0  0  0
 29 28  1  0  0  0  0
M  END
> <Molecule Name>
DNDI1433764

> <CDD Number>
CDD-1535389

> <IC50_uM>
1.44 (n=1)

$$$$

SketchEl molfile

 28 30  0  0  0  0  0  0  0  0999 V2000
    7.2457   -8.7867    0.0000 N   0  0  0  0  0  0  0  0  0  0  0  0
    5.0012  -10.0862    0.0000 C   0  0  0  0  0  0  0  0  0  0  0  0
    5.0000  -10.9534    0.0000 C   0  0  0  0  0  0  0  0  0  0  0  0
    5.7536  -11.3862    0.0000 N   0  0  0  0  0  0  0  0  0  0  0  0
    6.5003  -10.9529    0.0000 C   0  0  0  0  0  0  0  0  0  0  0  0
    6.4973  -10.0823    0.0000 C   0  0  0  0  0  0  0  0  0  0  0  0
    5.7517   -9.6535    0.0000 N   0  0  0  0  0  0  0  0  0  0  0  0
    7.2445   -9.6515    0.0000 C   0  0  0  0  0  0  0  0  0  0  0  0
    7.9951  -10.0854    0.0000 C   0  0  0  0  0  0  0  0  0  0  0  0
    7.9948  -10.9521    0.0000 C   0  0  0  0  0  0  0  0  0  0  0  0
    8.7445  -11.3860    0.0000 C   0  0  0  0  0  0  0  0  0  0  0  0
    9.4928  -10.9551    0.0000 C   0  0  0  0  0  0  0  0  0  0  0  0
    9.4955  -10.0858    0.0000 C   0  0  0  0  0  0  0  0  0  0  0  0
    8.7452   -9.6515    0.0000 C   0  0  0  0  0  0  0  0  0  0  0  0
    7.9973   -8.3530    0.0000 C   0  0  0  0  0  0  0  0  0  0  0  0
    7.9956   -7.4868    0.0000 C   0  0  0  0  0  0  0  0  0  0  0  0
    7.2476   -7.0519    0.0000 C   0  0  0  0  0  0  0  0  0  0  0  0
    6.4999   -7.4839    0.0000 C   0  0  0  0  0  0  0  0  0  0  0  0
    6.5001   -8.3552    0.0000 C   0  0  0  0  0  0  0  0  0  0  0  0
    7.2469   -6.1868    0.0000 N   0  0  0  0  0  0  0  0  0  0  0  0
    7.9903   -5.7559    0.0000 S   0  0  0  0  0  0  0  0  0  0  0  0
    7.5572   -5.0000    0.0000 O   0  0  0  0  0  0  0  0  0  0  0  0
    8.4287   -6.5132    0.0000 C   0  0  0  0  0  0  0  0  0  0  0  0
    8.7483   -5.3202    0.0000 O   0  0  0  0  0  0  0  0  0  0  0  0
    9.5888  -10.7984    0.0000 C   0  0  0  0  0  0  0  0  0  0  0  0
    9.5932  -11.4797    0.0000 F   0  0  0  0  0  0  0  0  0  0  0  0
   10.1782  -10.4626    0.0000 F   0  0  0  0  0  0  0  0  0  0  0  0
    9.1158  -11.2819    0.0000 F   0  0  0  0  0  0  0  0  0  0  0  0
 12 25  1  0  0  0  0
 25 26  1  0  0  0  0
 25 27  1  0  0  0  0
 25 28  1  0  0  0  0
 18 19  1  0  0  0  0
 10 11  1  0  0  0  0
 17 20  1  0  0  0  0
  8  1  1  0  0  0  0
 20 21  1  0  0  0  0
  6  7  2  0  0  0  0
 21 22  2  0  0  0  0
 11 12  2  0  0  0  0
 21 23  1  0  0  0  0
  7  2  1  0  0  0  0
 12 13  1  0  0  0  0
  2  3  2  0  0  0  0
 13 14  2  0  0  0  0
 14  9  1  0  0  0  0
  6  8  1  0  0  0  0
 21 24  2  0  0  0  0
  4  5  2  0  0  0  0
  1 15  1  0  0  0  0
  8  9  1  0  0  0  0
  5  6  1  0  0  0  0
  9 10  2  0  0  0  0
  3  4  1  0  0  0  0
  1 19  1  0  0  0  0
 15 16  1  0  0  0  0
 16 17  1  0  0  0  0
 17 18  1  0  0  0  0
M  END
> <Molecule Name>
DNDI1433765

> <CDD Number>
CDD-1535390

> <IC50_uM>
1.22 (n=1)

$$$$

SketchEl molfile

 29 31  0  0  0  0  0  0  0  0999 V2000
    7.9023   -5.8676    0.0000 S   0  0  0  0  0  0  0  0  0  0  0  0
    7.0066   -5.7269    0.0000 O   0  0  0  0  0  0  0  0  0  0  0  0
    8.6813   -5.4413    0.0000 C   0  0  0  0  0  0  0  0  0  0  0  0
    7.5725   -5.0000    0.0000 O   0  0  0  0  0  0  0  0  0  0  0  0
    7.1681   -9.6205    0.0000 N   0  0  0  0  0  0  0  0  0  0  0  0
    5.0012  -10.8741    0.0000 C   0  0  0  0  0  0  0  0  0  0  0  0
    5.0000  -11.7123    0.0000 C   0  0  0  0  0  0  0  0  0  0  0  0
    5.7264  -12.1283    0.0000 N   0  0  0  0  0  0  0  0  0  0  0  0
    6.4501  -11.7118    0.0000 C   0  0  0  0  0  0  0  0  0  0  0  0
    6.4471  -10.8702    0.0000 C   0  0  0  0  0  0  0  0  0  0  0  0
    5.7245  -10.4582    0.0000 N   0  0  0  0  0  0  0  0  0  0  0  0
    7.1670  -10.4561    0.0000 C   0  0  0  0  0  0  0  0  0  0  0  0
    7.8903  -10.8733    0.0000 C   0  0  0  0  0  0  0  0  0  0  0  0
    7.8900  -11.7109    0.0000 C   0  0  0  0  0  0  0  0  0  0  0  0
    8.6168  -12.1280    0.0000 C   0  0  0  0  0  0  0  0  0  0  0  0
    9.3378  -11.7140    0.0000 C   0  0  0  0  0  0  0  0  0  0  0  0
    9.3406  -10.8737    0.0000 C   0  0  0  0  0  0  0  0  0  0  0  0
    8.6176  -10.4562    0.0000 C   0  0  0  0  0  0  0  0  0  0  0  0
    7.8903   -9.2014    0.0000 C   0  0  0  0  0  0  0  0  0  0  0  0
    7.8914   -8.3657    0.0000 C   0  0  0  0  0  0  0  0  0  0  0  0
    8.6181   -7.9558    0.0000 C   0  0  0  0  0  0  0  0  0  0  0  0
    8.6168   -7.1240    0.0000 C   0  0  0  0  0  0  0  0  0  0  0  0
    7.8978   -6.7033    0.0000 N   0  0  0  0  0  0  0  0  0  0  0  0
    7.1737   -7.1166    0.0000 C   0  0  0  0  0  0  0  0  0  0  0  0
    7.1686   -7.9550    0.0000 C   0  0  0  0  0  0  0  0  0  0  0  0
   10.0661  -12.1346    0.0000 C   0  0  0  0  0  0  0  0  0  0  0  0
   10.0706  -12.7915    0.0000 F   0  0  0  0  0  0  0  0  0  0  0  0
   10.6335  -11.8089    0.0000 F   0  0  0  0  0  0  0  0  0  0  0  0
    9.6090  -12.5981    0.0000 F   0  0  0  0  0  0  0  0  0  0  0  0
 16 26  1  0  0  0  0
 26 27  1  0  0  0  0
 26 28  1  0  0  0  0
 26 29  1  0  0  0  0
 10 12  1  0  0  0  0
  8  9  2  0  0  0  0
 12 13  1  0  0  0  0
  9 10  1  0  0  0  0
 13 14  2  0  0  0  0
  7  8  1  0  0  0  0
  1  3  1  0  0  0  0
  5 19  1  0  0  0  0
  1  4  2  0  0  0  0
 19 20  1  0  0  0  0
 20 21  1  0  0  0  0
  1  2  2  0  0  0  0
 14 15  1  0  0  0  0
 12  5  1  0  0  0  0
 10 11  2  0  0  0  0
 20 25  1  0  0  0  0
 21 22  1  0  0  0  0
 22 23  1  0  0  0  0
 23 24  1  0  0  0  0
 24 25  1  0  0  0  0
 23  1  1  0  0  0  0
 15 16  2  0  0  0  0
 11  6  1  0  0  0  0
 16 17  1  0  0  0  0
  6  7  2  0  0  0  0
 17 18  2  0  0  0  0
 18 13  1  0  0  0  0
M  END
> <Molecule Name>
DNDI1433766

> <CDD Number>
CDD-1535391

> <IC50_uM>
0.36 (n=1)

$$$$

SketchEl molfile

 26 28  0  0  0  0  0  0  0  0999 V2000
   10.1059   -5.0084    0.0000 C   0  0  0  0  0  0  0  0  0  0  0  0
   10.8705   -5.4749    0.0000 C   0  0  0  0  0  0  0  0  0  0  0  0
    7.9170   -6.2558    0.0000 C   0  0  0  0  0  0  0  0  0  0  0  0
    8.6409   -6.6847    0.0000 C   0  0  0  0  0  0  0  0  0  0  0  0
    9.3673   -6.2651    0.0000 C   0  0  0  0  0  0  0  0  0  0  0  0
    9.3733   -5.4249    0.0000 N   0  0  0  0  0  0  0  0  0  0  0  0
    8.6477   -5.0000    0.0000 C   0  0  0  0  0  0  0  0  0  0  0  0
    7.9123   -5.4174    0.0000 C   0  0  0  0  0  0  0  0  0  0  0  0
    7.1866   -6.6762    0.0000 N   0  0  0  0  0  0  0  0  0  0  0  0
    5.0012   -7.9404    0.0000 C   0  0  0  0  0  0  0  0  0  0  0  0
    5.0000   -8.7858    0.0000 C   0  0  0  0  0  0  0  0  0  0  0  0
    5.7326   -9.2053    0.0000 N   0  0  0  0  0  0  0  0  0  0  0  0
    6.4625   -8.7853    0.0000 C   0  0  0  0  0  0  0  0  0  0  0  0
    6.4594   -7.9365    0.0000 C   0  0  0  0  0  0  0  0  0  0  0  0
    5.7307   -7.5210    0.0000 N   0  0  0  0  0  0  0  0  0  0  0  0
    7.1854   -7.5190    0.0000 C   0  0  0  0  0  0  0  0  0  0  0  0
    7.9149   -7.9397    0.0000 C   0  0  0  0  0  0  0  0  0  0  0  0
    7.9146   -8.7845    0.0000 C   0  0  0  0  0  0  0  0  0  0  0  0
    8.6476   -9.2051    0.0000 C   0  0  0  0  0  0  0  0  0  0  0  0
    9.3747   -8.7875    0.0000 C   0  0  0  0  0  0  0  0  0  0  0  0
    9.3775   -7.9401    0.0000 C   0  0  0  0  0  0  0  0  0  0  0  0
    8.6484   -7.5190    0.0000 C   0  0  0  0  0  0  0  0  0  0  0  0
   10.1092   -9.2117    0.0000 C   0  0  0  0  0  0  0  0  0  0  0  0
   10.1138   -9.8742    0.0000 F   0  0  0  0  0  0  0  0  0  0  0  0
   10.6814   -8.8833    0.0000 F   0  0  0  0  0  0  0  0  0  0  0  0
    9.6482   -9.6792    0.0000 F   0  0  0  0  0  0  0  0  0  0  0  0
 20 23  1  0  0  0  0
 23 24  1  0  0  0  0
 23 25  1  0  0  0  0
 23 26  1  0  0  0  0
  4  5  1  0  0  0  0
 14 16  1  0  0  0  0
 12 13  2  0  0  0  0
 16 17  1  0  0  0  0
 13 14  1  0  0  0  0
 17 18  2  0  0  0  0
 11 12  1  0  0  0  0
 18 19  1  0  0  0  0
 16  9  1  0  0  0  0
 14 15  2  0  0  0  0
 19 20  2  0  0  0  0
 15 10  1  0  0  0  0
 20 21  1  0  0  0  0
 10 11  2  0  0  0  0
 21 22  2  0  0  0  0
 22 17  1  0  0  0  0
  9  3  1  0  0  0  0
  5  6  1  0  0  0  0
  6  7  1  0  0  0  0
  7  8  1  0  0  0  0
  6  1  1  0  0  0  0
  1  2  1  0  0  0  0
  3  4  1  0  0  0  0
  3  8  1  0  0  0  0
M  END
> <Molecule Name>
DNDI1433767

> <CDD Number>
CDD-1535392

> <IC50_uM>
> 1.0 (n=1)

$$$$

SketchEl molfile

 31 33  0  0  0  0  0  0  0  0999 V2000
    9.9718   -5.0000    0.0000 O   0  0  0  0  0  0  0  0  0  0  0  0
    9.9924   -5.9499    0.0000 C   0  0  0  0  0  0  0  0  0  0  0  0
   10.6514   -6.3219    0.0000 C   0  0  0  0  0  0  0  0  0  0  0  0
    7.1420   -7.6077    0.0000 N   0  0  0  0  0  0  0  0  0  0  0  0
    5.0014   -8.8494    0.0000 C   0  0  0  0  0  0  0  0  0  0  0  0
    5.0000   -9.6749    0.0000 C   0  0  0  0  0  0  0  0  0  0  0  0
    5.7165  -10.0867    0.0000 N   0  0  0  0  0  0  0  0  0  0  0  0
    6.4349   -9.6744    0.0000 C   0  0  0  0  0  0  0  0  0  0  0  0
    6.4315   -8.8450    0.0000 C   0  0  0  0  0  0  0  0  0  0  0  0
    5.7143   -8.4426    0.0000 N   0  0  0  0  0  0  0  0  0  0  0  0
    7.1457   -8.4354    0.0000 C   0  0  0  0  0  0  0  0  0  0  0  0
    7.8586   -8.8386    0.0000 C   0  0  0  0  0  0  0  0  0  0  0  0
    7.8583   -9.6635    0.0000 C   0  0  0  0  0  0  0  0  0  0  0  0
    8.5752  -10.0716    0.0000 C   0  0  0  0  0  0  0  0  0  0  0  0
    9.2906   -9.6619    0.0000 C   0  0  0  0  0  0  0  0  0  0  0  0
    9.2837   -8.8292    0.0000 C   0  0  0  0  0  0  0  0  0  0  0  0
    8.5661   -8.4255    0.0000 C   0  0  0  0  0  0  0  0  0  0  0  0
    7.8562   -7.1931    0.0000 C   0  0  0  0  0  0  0  0  0  0  0  0
    8.5633   -7.6047    0.0000 C   0  0  0  0  0  0  0  0  0  0  0  0
    9.2750   -7.1943    0.0000 C   0  0  0  0  0  0  0  0  0  0  0  0
    9.2763   -6.3712    0.0000 N   0  0  0  0  0  0  0  0  0  0  0  0
    8.5636   -5.9505    0.0000 C   0  0  0  0  0  0  0  0  0  0  0  0
    7.8445   -6.3678    0.0000 C   0  0  0  0  0  0  0  0  0  0  0  0
   11.0350   -6.9712    0.0000 C   0  0  0  0  0  0  0  0  0  0  0  0
   11.4070   -6.3122    0.0000 C   0  0  0  0  0  0  0  0  0  0  0  0
    9.9992  -10.0640    0.0000 C   0  0  0  0  0  0  0  0  0  0  0  0
   10.0042  -10.8917    0.0000 F   0  0  0  0  0  0  0  0  0  0  0  0
   10.7177   -9.6533    0.0000 F   0  0  0  0  0  0  0  0  0  0  0  0
    9.4228  -10.6524    0.0000 F   0  0  0  0  0  0  0  0  0  0  0  0
   12.8166   -7.6450    0.0000 Cl  0  0  0  0  0  0  0  0  0  0  0  0
   11.9667   -8.1357    0.0000 H   0  0  0  0  0  0  0  0  0  0  0  0
 15 26  1  0  0  0  0
 26 27  1  0  0  0  0
 26 28  1  0  0  0  0
 26 29  1  0  0  0  0
 19 20  1  0  0  0  0
 20 21  1  0  0  0  0
 21 22  1  0  0  0  0
 22 23  1  0  0  0  0
 21  2  1  0  0  0  0
  2  1  2  0  0  0  0
  2  3  1  0  0  0  0
  8  9  1  0  0  0  0
 12 13  2  0  0  0  0
  6  7  1  0  0  0  0
 13 14  1  0  0  0  0
 11  4  1  0  0  0  0
  9 10  2  0  0  0  0
 14 15  2  0  0  0  0
 10  5  1  0  0  0  0
 24  3  1  0  0  0  0
 25 24  1  0  0  0  0
  3 25  1  0  0  0  0
 15 16  1  0  0  0  0
  5  6  2  0  0  0  0
 16 17  2  0  0  0  0
 17 12  1  0  0  0  0
  9 11  1  0  0  0  0
  7  8  2  0  0  0  0
 11 12  1  0  0  0  0
  4 18  1  0  0  0  0
 18 19  1  0  0  0  0
 18 23  1  0  0  0  0
 31 30  1  0  0  0  0
M  END
> <Molecule Name>
DNDI1433769

> <CDD Number>
CDD-1535393

> <IC50_uM>
0.64 (n=1)

$$$$

SketchEl molfile

 34 36  0  0  0  0  0  0  0  0999 V2000
   10.0061   -5.0000    0.0000 O   0  0  0  0  0  0  0  0  0  0  0  0
   10.0268   -5.9564    0.0000 C   0  0  0  0  0  0  0  0  0  0  0  0
   10.6904   -6.3310    0.0000 C   0  0  0  0  0  0  0  0  0  0  0  0
    7.1567   -7.6257    0.0000 N   0  0  0  0  0  0  0  0  0  0  0  0
    5.0014   -8.8759    0.0000 C   0  0  0  0  0  0  0  0  0  0  0  0
    5.0000   -9.7071    0.0000 C   0  0  0  0  0  0  0  0  0  0  0  0
    5.7214  -10.1218    0.0000 N   0  0  0  0  0  0  0  0  0  0  0  0
    6.4448   -9.7066    0.0000 C   0  0  0  0  0  0  0  0  0  0  0  0
    6.4413   -8.8715    0.0000 C   0  0  0  0  0  0  0  0  0  0  0  0
    5.7192   -8.4663    0.0000 N   0  0  0  0  0  0  0  0  0  0  0  0
    7.1605   -8.4591    0.0000 C   0  0  0  0  0  0  0  0  0  0  0  0
    7.8783   -8.8651    0.0000 C   0  0  0  0  0  0  0  0  0  0  0  0
    7.8780   -9.6957    0.0000 C   0  0  0  0  0  0  0  0  0  0  0  0
    8.5998  -10.1066    0.0000 C   0  0  0  0  0  0  0  0  0  0  0  0
    9.3201   -9.6941    0.0000 C   0  0  0  0  0  0  0  0  0  0  0  0
    9.3132   -8.8555    0.0000 C   0  0  0  0  0  0  0  0  0  0  0  0
    8.5907   -8.4491    0.0000 C   0  0  0  0  0  0  0  0  0  0  0  0
    7.8759   -7.2083    0.0000 C   0  0  0  0  0  0  0  0  0  0  0  0
    8.5878   -7.6227    0.0000 C   0  0  0  0  0  0  0  0  0  0  0  0
    9.3044   -7.2094    0.0000 C   0  0  0  0  0  0  0  0  0  0  0  0
    9.3058   -6.3806    0.0000 N   0  0  0  0  0  0  0  0  0  0  0  0
    8.5881   -5.9570    0.0000 C   0  0  0  0  0  0  0  0  0  0  0  0
    7.8641   -6.3772    0.0000 C   0  0  0  0  0  0  0  0  0  0  0  0
   10.6933   -7.0937    0.0000 C   0  0  0  0  0  0  0  0  0  0  0  0
   11.3531   -7.4682    0.0000 C   0  0  0  0  0  0  0  0  0  0  0  0
   12.0115   -7.0841    0.0000 C   0  0  0  0  0  0  0  0  0  0  0  0
   12.0060   -6.3212    0.0000 C   0  0  0  0  0  0  0  0  0  0  0  0
   11.3419   -5.9425    0.0000 C   0  0  0  0  0  0  0  0  0  0  0  0
   10.0337  -10.0989    0.0000 C   0  0  0  0  0  0  0  0  0  0  0  0
   10.0387  -10.9323    0.0000 F   0  0  0  0  0  0  0  0  0  0  0  0
   10.7571   -9.6853    0.0000 F   0  0  0  0  0  0  0  0  0  0  0  0
    9.4533  -10.6914    0.0000 F   0  0  0  0  0  0  0  0  0  0  0  0
   12.1419   -8.6314    0.0000 Cl  0  0  0  0  0  0  0  0  0  0  0  0
   11.2861   -9.1255    0.0000 H   0  0  0  0  0  0  0  0  0  0  0  0
 15 29  1  0  0  0  0
 29 30  1  0  0  0  0
 29 31  1  0  0  0  0
 29 32  1  0  0  0  0
 11  4  1  0  0  0  0
  9 10  2  0  0  0  0
 14 15  2  0  0  0  0
 10  5  1  0  0  0  0
 15 16  1  0  0  0  0
  5  6  2  0  0  0  0
 16 17  2  0  0  0  0
 17 12  1  0  0  0  0
  9 11  1  0  0  0  0
  7  8  2  0  0  0  0
 11 12  1  0  0  0  0
  3 24  1  0  0  0  0
  4 18  1  0  0  0  0
 18 19  1  0  0  0  0
 18 23  1  0  0  0  0
 19 20  1  0  0  0  0
  3 28  1  0  0  0  0
 24 25  1  0  0  0  0
 25 26  1  0  0  0  0
 26 27  1  0  0  0  0
 27 28  1  0  0  0  0
 20 21  1  0  0  0  0
 21 22  1  0  0  0  0
 22 23  1  0  0  0  0
 21  2  1  0  0  0  0
  2  1  2  0  0  0  0
  2  3  1  0  0  0  0
  8  9  1  0  0  0  0
 12 13  2  0  0  0  0
  6  7  1  0  0  0  0
 13 14  1  0  0  0  0
 34 33  1  0  0  0  0
M  END
> <Molecule Name>
DNDI1433770

> <CDD Number>
CDD-1535394

> <IC50_uM>
0.25 (n=1)

$$$$

SketchEl molfile

 38 39  0  0  0  0  0  0  0  0999 V2000
    7.1460   -9.7199    0.0000 N   0  0  0  0  0  0  0  0  0  0  0  0
    5.0012  -10.9586    0.0000 N   0  0  0  0  0  0  0  0  0  0  0  0
    5.0000  -11.7867    0.0000 C   0  0  0  0  0  0  0  0  0  0  0  0
    5.7160  -12.1979    0.0000 N   0  0  0  0  0  0  0  0  0  0  0  0
    6.4378  -11.7863    0.0000 C   0  0  0  0  0  0  0  0  0  0  0  0
    6.4350  -10.9550    0.0000 C   0  0  0  0  0  0  0  0  0  0  0  0
    5.7142  -10.5517    0.0000 C   0  0  0  0  0  0  0  0  0  0  0  0
    7.1491  -10.5457    0.0000 C   0  0  0  0  0  0  0  0  0  0  0  0
    7.8621  -10.9455    0.0000 C   0  0  0  0  0  0  0  0  0  0  0  0
    7.8619  -11.7772    0.0000 C   0  0  0  0  0  0  0  0  0  0  0  0
    8.5824  -12.1852    0.0000 C   0  0  0  0  0  0  0  0  0  0  0  0
    9.2975  -11.7759    0.0000 C   0  0  0  0  0  0  0  0  0  0  0  0
    9.2918  -10.9417    0.0000 C   0  0  0  0  0  0  0  0  0  0  0  0
    8.5707  -10.5333    0.0000 C   0  0  0  0  0  0  0  0  0  0  0  0
   10.0158  -12.1870    0.0000 Cl  0  0  0  0  0  0  0  0  0  0  0  0
    7.8600   -9.3079    0.0000 C   0  0  0  0  0  0  0  0  0  0  0  0
    7.8585   -8.4808    0.0000 C   0  0  0  0  0  0  0  0  0  0  0  0
    7.1437   -8.0676    0.0000 N   0  0  0  0  0  0  0  0  0  0  0  0
    6.4250   -8.4863    0.0000 C   0  0  0  0  0  0  0  0  0  0  0  0
    6.4252   -9.3141    0.0000 C   0  0  0  0  0  0  0  0  0  0  0  0
    7.1430   -7.2416    0.0000 C   0  0  0  0  0  0  0  0  0  0  0  0
    6.4236   -6.8291    0.0000 C   0  0  0  0  0  0  0  0  0  0  0  0
    6.4230   -5.9990    0.0000 C   0  0  0  0  0  0  0  0  0  0  0  0
    7.8538   -6.8294    0.0000 O   0  0  0  0  0  0  0  0  0  0  0  0
    5.7129   -7.2413    0.0000 C   0  0  0  0  0  0  0  0  0  0  0  0
   10.4674   -6.2324    0.0000 C   0  0  0  0  0  0  0  0  0  0  0  0
   11.1790   -5.8216    0.0000 C   0  0  0  0  0  0  0  0  0  0  0  0
   11.8905   -6.2324    0.0000 O   0  0  0  0  0  0  0  0  0  0  0  0
   11.1790   -5.0000    0.0000 O   0  0  0  0  0  0  0  0  0  0  0  0
   10.4674   -7.0540    0.0000 C   0  0  0  0  0  0  0  0  0  0  0  0
    9.7559   -7.4648    0.0000 C   0  0  0  0  0  0  0  0  0  0  0  0
   11.1770   -7.4607    0.0000 C   0  0  0  0  0  0  0  0  0  0  0  0
    9.7537   -6.6391    0.0000 O   0  0  0  0  0  0  0  0  0  0  0  0
   11.1796   -8.2823    0.0000 C   0  0  0  0  0  0  0  0  0  0  0  0
   10.4694   -8.6953    0.0000 O   0  0  0  0  0  0  0  0  0  0  0  0
   11.8924   -8.6908    0.0000 O   0  0  0  0  0  0  0  0  0  0  0  0
    9.0444   -7.0540    0.0000 O   0  0  0  0  0  0  0  0  0  0  0  0
    9.7559   -8.2864    0.0000 O   0  0  0  0  0  0  0  0  0  0  0  0
  2  3  2  0  0  0  0
 13 14  2  0  0  0  0
 14  9  1  0  0  0  0
  6  8  1  0  0  0  0
 12 15  1  0  0  0  0
  1 16  1  0  0  0  0
  4  5  2  0  0  0  0
  8  9  1  0  0  0  0
  5  6  1  0  0  0  0
  9 10  2  0  0  0  0
  3  4  1  0  0  0  0
  1 20  1  0  0  0  0
 16 17  1  0  0  0  0
 17 18  1  0  0  0  0
 18 19  1  0  0  0  0
 19 20  1  0  0  0  0
 10 11  1  0  0  0  0
 18 21  1  0  0  0  0
  8  1  1  0  0  0  0
  6  7  2  0  0  0  0
 21 22  1  0  0  0  0
 11 12  2  0  0  0  0
  7  2  1  0  0  0  0
 22 23  1  0  0  0  0
 21 24  2  0  0  0  0
 12 13  1  0  0  0  0
 22 25  1  0  0  0  0
 26 27  1  0  0  0  0
 27 28  1  0  0  0  0
 27 29  2  0  0  0  0
 26 30  1  0  0  0  0
 30 31  1  0  0  0  0
 30 32  1  0  0  0  0
 30 33  1  0  0  0  0
 32 34  1  0  0  0  0
 34 35  2  0  0  0  0
 34 36  1  0  0  0  0
 31 37  1  0  0  0  0
 31 38  2  0  0  0  0
M  END
> <Molecule Name>
DNDI1433771

> <CDD Number>
CDD-1535395

> <IC50_uM>
0.68 (n=1)

$$$$

SketchEl molfile

 32 35  0  0  0  0  0  0  0  0999 V2000
    7.8857   -5.0000    0.0000 O   0  0  0  0  0  0  0  0  0  0  0  0
    7.9034   -5.9622    0.0000 C   0  0  0  0  0  0  0  0  0  0  0  0
    8.5698   -6.3412    0.0000 C   0  0  0  0  0  0  0  0  0  0  0  0
    8.5703   -7.1085    0.0000 C   0  0  0  0  0  0  0  0  0  0  0  0
    9.2328   -7.4875    0.0000 C   0  0  0  0  0  0  0  0  0  0  0  0
    9.8965   -7.1031    0.0000 C   0  0  0  0  0  0  0  0  0  0  0  0
    9.8934   -6.3357    0.0000 C   0  0  0  0  0  0  0  0  0  0  0  0
    9.2266   -5.9525    0.0000 C   0  0  0  0  0  0  0  0  0  0  0  0
    7.1698   -8.8695    0.0000 N   0  0  0  0  0  0  0  0  0  0  0  0
    7.8899   -8.4592    0.0000 C   0  0  0  0  0  0  0  0  0  0  0  0
    7.8921   -7.6270    0.0000 C   0  0  0  0  0  0  0  0  0  0  0  0
    7.1716   -7.2073    0.0000 C   0  0  0  0  0  0  0  0  0  0  0  0
    6.4406   -7.6179    0.0000 C   0  0  0  0  0  0  0  0  0  0  0  0
    6.4407   -8.4602    0.0000 C   0  0  0  0  0  0  0  0  0  0  0  0
    5.0014  -10.1273    0.0000 C   0  0  0  0  0  0  0  0  0  0  0  0
    5.0000  -10.9635    0.0000 C   0  0  0  0  0  0  0  0  0  0  0  0
    5.7258  -11.3807    0.0000 N   0  0  0  0  0  0  0  0  0  0  0  0
    6.4535  -10.9630    0.0000 C   0  0  0  0  0  0  0  0  0  0  0  0
    6.4500  -10.1229    0.0000 C   0  0  0  0  0  0  0  0  0  0  0  0
    5.7236   -9.7152    0.0000 N   0  0  0  0  0  0  0  0  0  0  0  0
    7.1735   -9.7079    0.0000 C   0  0  0  0  0  0  0  0  0  0  0  0
    7.8957  -10.1164    0.0000 C   0  0  0  0  0  0  0  0  0  0  0  0
    7.8954  -10.9520    0.0000 C   0  0  0  0  0  0  0  0  0  0  0  0
    8.6216  -11.3654    0.0000 C   0  0  0  0  0  0  0  0  0  0  0  0
    9.3463  -10.9504    0.0000 C   0  0  0  0  0  0  0  0  0  0  0  0
    9.3393  -10.1068    0.0000 C   0  0  0  0  0  0  0  0  0  0  0  0
    8.6124   -9.6979    0.0000 C   0  0  0  0  0  0  0  0  0  0  0  0
    7.1781   -6.3735    0.0000 N   0  0  0  0  0  0  0  0  0  0  0  0
   10.0641  -11.3577    0.0000 C   0  0  0  0  0  0  0  0  0  0  0  0
   10.0691  -12.1961    0.0000 F   0  0  0  0  0  0  0  0  0  0  0  0
   10.7919  -10.9416    0.0000 F   0  0  0  0  0  0  0  0  0  0  0  0
    9.4802  -11.9537    0.0000 F   0  0  0  0  0  0  0  0  0  0  0  0
 25 29  1  0  0  0  0
 29 30  1  0  0  0  0
 29 31  1  0  0  0  0
 29 32  1  0  0  0  0
 21  9  1  0  0  0  0
 19 20  2  0  0  0  0
 24 25  2  0  0  0  0
 20 15  1  0  0  0  0
 25 26  1  0  0  0  0
 15 16  2  0  0  0  0
 26 27  2  0  0  0  0
 27 22  1  0  0  0  0
 19 21  1  0  0  0  0
 17 18  2  0  0  0  0
 21 22  1  0  0  0  0
 18 19  1  0  0  0  0
 22 23  2  0  0  0  0
 16 17  1  0  0  0  0
 23 24  1  0  0  0  0
 12 13  1  0  0  0  0
 12 28  1  0  0  0  0
 28  2  1  0  0  0  0
 13 14  1  0  0  0  0
  7  8  1  0  0  0  0
  2  1  2  0  0  0  0
  2  3  1  0  0  0  0
  3  4  1  0  0  0  0
  3  8  1  0  0  0  0
  4  5  1  0  0  0  0
  5  6  1  0  0  0  0
  6  7  1  0  0  0  0
  9 10  1  0  0  0  0
  9 14  1  0  0  0  0
 10 11  1  0  0  0  0
 11 12  1  0  0  0  0
M  END
> <Molecule Name>
DNDI1433772

> <CDD Number>
CDD-1535396

> <IC50_uM>
0.25 (n=1)

$$$$

SketchEl molfile

 34 36  0  0  0  0  0  0  0  0999 V2000
    7.8694   -5.0000    0.0000 O   0  0  0  0  0  0  0  0  0  0  0  0
    7.8870   -5.9568    0.0000 C   0  0  0  0  0  0  0  0  0  0  0  0
    8.5496   -6.3337    0.0000 C   0  0  0  0  0  0  0  0  0  0  0  0
    8.5501   -7.0966    0.0000 C   0  0  0  0  0  0  0  0  0  0  0  0
    9.2089   -7.4734    0.0000 C   0  0  0  0  0  0  0  0  0  0  0  0
    9.8688   -7.0913    0.0000 C   0  0  0  0  0  0  0  0  0  0  0  0
    9.8657   -6.3281    0.0000 C   0  0  0  0  0  0  0  0  0  0  0  0
    9.2027   -5.9471    0.0000 C   0  0  0  0  0  0  0  0  0  0  0  0
    7.1575   -8.8476    0.0000 N   0  0  0  0  0  0  0  0  0  0  0  0
    7.8735   -8.4397    0.0000 C   0  0  0  0  0  0  0  0  0  0  0  0
    7.8757   -7.6122    0.0000 C   0  0  0  0  0  0  0  0  0  0  0  0
    7.1593   -7.1949    0.0000 C   0  0  0  0  0  0  0  0  0  0  0  0
    6.4325   -7.6032    0.0000 C   0  0  0  0  0  0  0  0  0  0  0  0
    6.4325   -8.4406    0.0000 C   0  0  0  0  0  0  0  0  0  0  0  0
    5.0014  -10.0983    0.0000 C   0  0  0  0  0  0  0  0  0  0  0  0
    5.0000  -10.9298    0.0000 C   0  0  0  0  0  0  0  0  0  0  0  0
    5.7216  -11.3446    0.0000 N   0  0  0  0  0  0  0  0  0  0  0  0
    6.4453  -10.9292    0.0000 C   0  0  0  0  0  0  0  0  0  0  0  0
    6.4418  -10.0939    0.0000 C   0  0  0  0  0  0  0  0  0  0  0  0
    5.7195   -9.6886    0.0000 N   0  0  0  0  0  0  0  0  0  0  0  0
    7.1612   -9.6813    0.0000 C   0  0  0  0  0  0  0  0  0  0  0  0
    7.8793  -10.0875    0.0000 C   0  0  0  0  0  0  0  0  0  0  0  0
    7.8790  -10.9183    0.0000 C   0  0  0  0  0  0  0  0  0  0  0  0
    8.6011  -11.3294    0.0000 C   0  0  0  0  0  0  0  0  0  0  0  0
    9.3216  -10.9167    0.0000 C   0  0  0  0  0  0  0  0  0  0  0  0
    9.3147  -10.0779    0.0000 C   0  0  0  0  0  0  0  0  0  0  0  0
    8.5920   -9.6714    0.0000 C   0  0  0  0  0  0  0  0  0  0  0  0
    7.1657   -6.3658    0.0000 N   0  0  0  0  0  0  0  0  0  0  0  0
   10.0354  -11.3217    0.0000 C   0  0  0  0  0  0  0  0  0  0  0  0
   10.0405  -12.1554    0.0000 F   0  0  0  0  0  0  0  0  0  0  0  0
   10.7591  -10.9080    0.0000 F   0  0  0  0  0  0  0  0  0  0  0  0
    9.4549  -11.9144    0.0000 F   0  0  0  0  0  0  0  0  0  0  0  0
   10.9811   -8.4659    0.0000 Cl  0  0  0  0  0  0  0  0  0  0  0  0
   10.1251   -8.9601    0.0000 H   0  0  0  0  0  0  0  0  0  0  0  0
 25 29  1  0  0  0  0
 29 30  1  0  0  0  0
 29 31  1  0  0  0  0
 29 32  1  0  0  0  0
 19 21  1  0  0  0  0
 17 18  2  0  0  0  0
 21 22  1  0  0  0  0
 18 19  1  0  0  0  0
 22 23  2  0  0  0  0
 16 17  1  0  0  0  0
 23 24  1  0  0  0  0
 12 13  1  0  0  0  0
 12 28  1  0  0  0  0
 28  2  1  0  0  0  0
 13 14  1  0  0  0  0
  7  8  2  0  0  0  0
  2  1  2  0  0  0  0
  2  3  1  0  0  0  0
  3  4  2  0  0  0  0
  3  8  1  0  0  0  0
  4  5  1  0  0  0  0
  5  6  2  0  0  0  0
  6  7  1  0  0  0  0
  9 10  1  0  0  0  0
  9 14  1  0  0  0  0
 10 11  1  0  0  0  0
 11 12  1  0  0  0  0
 21  9  1  0  0  0  0
 19 20  2  0  0  0  0
 24 25  2  0  0  0  0
 20 15  1  0  0  0  0
 25 26  1  0  0  0  0
 15 16  2  0  0  0  0
 26 27  2  0  0  0  0
 27 22  1  0  0  0  0
 34 33  1  0  0  0  0
M  END
> <Molecule Name>
DNDI1433773

> <CDD Number>
CDD-1535397

> <IC50_uM>
0.2 (n=1)

$$$$

SketchEl molfile

 33 36  0  0  0  0  0  0  0  0999 V2000
    7.8832   -5.8596    0.0000 S   0  0  0  0  0  0  0  0  0  0  0  0
    8.5449   -6.2359    0.0000 C   0  0  0  0  0  0  0  0  0  0  0  0
    8.5453   -6.9979    0.0000 C   0  0  0  0  0  0  0  0  0  0  0  0
    9.2033   -7.3742    0.0000 C   0  0  0  0  0  0  0  0  0  0  0  0
    9.8623   -6.9925    0.0000 C   0  0  0  0  0  0  0  0  0  0  0  0
    9.8592   -6.2304    0.0000 C   0  0  0  0  0  0  0  0  0  0  0  0
    9.1971   -5.8499    0.0000 C   0  0  0  0  0  0  0  0  0  0  0  0
    7.1546   -8.7465    0.0000 N   0  0  0  0  0  0  0  0  0  0  0  0
    7.8697   -8.3391    0.0000 C   0  0  0  0  0  0  0  0  0  0  0  0
    7.8719   -7.5127    0.0000 C   0  0  0  0  0  0  0  0  0  0  0  0
    7.1564   -7.0960    0.0000 C   0  0  0  0  0  0  0  0  0  0  0  0
    6.4305   -7.5037    0.0000 C   0  0  0  0  0  0  0  0  0  0  0  0
    6.4306   -8.3401    0.0000 C   0  0  0  0  0  0  0  0  0  0  0  0
    5.0014   -9.9955    0.0000 C   0  0  0  0  0  0  0  0  0  0  0  0
    5.0000  -10.8259    0.0000 C   0  0  0  0  0  0  0  0  0  0  0  0
    5.7207  -11.2402    0.0000 N   0  0  0  0  0  0  0  0  0  0  0  0
    6.4433  -10.8254    0.0000 C   0  0  0  0  0  0  0  0  0  0  0  0
    6.4399   -9.9912    0.0000 C   0  0  0  0  0  0  0  0  0  0  0  0
    5.7185   -9.5864    0.0000 N   0  0  0  0  0  0  0  0  0  0  0  0
    7.1583   -9.5791    0.0000 C   0  0  0  0  0  0  0  0  0  0  0  0
    7.8755   -9.9847    0.0000 C   0  0  0  0  0  0  0  0  0  0  0  0
    7.8752  -10.8145    0.0000 C   0  0  0  0  0  0  0  0  0  0  0  0
    8.5963  -11.2250    0.0000 C   0  0  0  0  0  0  0  0  0  0  0  0
    9.3159  -10.8129    0.0000 C   0  0  0  0  0  0  0  0  0  0  0  0
    9.3090   -9.9752    0.0000 C   0  0  0  0  0  0  0  0  0  0  0  0
    8.5872   -9.5692    0.0000 C   0  0  0  0  0  0  0  0  0  0  0  0
    7.1629   -6.2680    0.0000 N   0  0  0  0  0  0  0  0  0  0  0  0
    7.3812   -5.0000    0.0000 O   0  0  0  0  0  0  0  0  0  0  0  0
    8.3684   -5.0000    0.0000 O   0  0  0  0  0  0  0  0  0  0  0  0
   10.0287  -11.2173    0.0000 C   0  0  0  0  0  0  0  0  0  0  0  0
   10.0337  -12.0499    0.0000 F   0  0  0  0  0  0  0  0  0  0  0  0
   10.7514  -10.8042    0.0000 F   0  0  0  0  0  0  0  0  0  0  0  0
    9.4489  -11.8092    0.0000 F   0  0  0  0  0  0  0  0  0  0  0  0
 24 30  1  0  0  0  0
 30 31  1  0  0  0  0
 30 32  1  0  0  0  0
 30 33  1  0  0  0  0
 11 27  1  0  0  0  0
 27  1  1  0  0  0  0
 12 13  1  0  0  0  0
  6  7  2  0  0  0  0
  1  2  1  0  0  0  0
  2  3  2  0  0  0  0
  2  7  1  0  0  0  0
  3  4  1  0  0  0  0
  4  5  2  0  0  0  0
  5  6  1  0  0  0  0
  8  9  1  0  0  0  0
  8 13  1  0  0  0  0
  9 10  1  0  0  0  0
 10 11  1  0  0  0  0
 20  8  1  0  0  0  0
 18 19  2  0  0  0  0
 23 24  2  0  0  0  0
 19 14  1  0  0  0  0
 24 25  1  0  0  0  0
 14 15  2  0  0  0  0
 25 26  2  0  0  0  0
 26 21  1  0  0  0  0
  1 28  2  0  0  0  0
 18 20  1  0  0  0  0
  1 29  2  0  0  0  0
 16 17  2  0  0  0  0
 20 21  1  0  0  0  0
 17 18  1  0  0  0  0
 21 22  2  0  0  0  0
 15 16  1  0  0  0  0
 22 23  1  0  0  0  0
 11 12  1  0  0  0  0
M  END
> <Molecule Name>
DNDI1433774

> <CDD Number>
CDD-1535398

> <IC50_uM>
0.26 (n=1)

$$$$

SketchEl molfile

 28 30  0  0  0  0  0  0  0  0999 V2000
    5.7192   -7.9021    0.0000 C   0  0  0  0  0  0  0  0  0  0  0  0
    5.7180   -8.7332    0.0000 C   0  0  0  0  0  0  0  0  0  0  0  0
    6.4361   -9.1479    0.0000 C   0  0  0  0  0  0  0  0  0  0  0  0
    7.1557   -8.7327    0.0000 C   0  0  0  0  0  0  0  0  0  0  0  0
    7.1529   -7.8984    0.0000 C   0  0  0  0  0  0  0  0  0  0  0  0
    6.4343   -7.4874    0.0000 C   0  0  0  0  0  0  0  0  0  0  0  0
    7.8690   -7.4813    0.0000 C   0  0  0  0  0  0  0  0  0  0  0  0
    8.5883   -7.8930    0.0000 C   0  0  0  0  0  0  0  0  0  0  0  0
    7.8659   -6.6526    0.0000 C   0  0  0  0  0  0  0  0  0  0  0  0
    8.4830   -7.1110    0.0000 O   0  0  0  0  0  0  0  0  0  0  0  0
    8.5880   -8.7194    0.0000 C   0  0  0  0  0  0  0  0  0  0  0  0
    9.3064   -9.1309    0.0000 C   0  0  0  0  0  0  0  0  0  0  0  0
   10.0235   -8.7138    0.0000 C   0  0  0  0  0  0  0  0  0  0  0  0
   10.0177   -7.8808    0.0000 C   0  0  0  0  0  0  0  0  0  0  0  0
    9.2988   -7.4730    0.0000 C   0  0  0  0  0  0  0  0  0  0  0  0
    8.5838   -6.2404    0.0000 C   0  0  0  0  0  0  0  0  0  0  0  0
    8.5810   -5.4124    0.0000 C   0  0  0  0  0  0  0  0  0  0  0  0
    7.8612   -5.0000    0.0000 C   0  0  0  0  0  0  0  0  0  0  0  0
    7.1427   -5.4215    0.0000 N   0  0  0  0  0  0  0  0  0  0  0  0
    7.1490   -6.2481    0.0000 C   0  0  0  0  0  0  0  0  0  0  0  0
    5.0000   -9.1470    0.0000 Cl  0  0  0  0  0  0  0  0  0  0  0  0
   10.7324   -7.4612    0.0000 C   0  0  0  0  0  0  0  0  0  0  0  0
   11.4531   -7.8703    0.0000 N   0  0  0  0  0  0  0  0  0  0  0  0
   10.7263   -6.6325    0.0000 O   0  0  0  0  0  0  0  0  0  0  0  0
   11.4591   -8.6990    0.0000 C   0  0  0  0  0  0  0  0  0  0  0  0
   12.1678   -7.4508    0.0000 C   0  0  0  0  0  0  0  0  0  0  0  0
   12.8885   -7.8599    0.0000 C   0  0  0  0  0  0  0  0  0  0  0  0
   12.1798   -9.1082    0.0000 C   0  0  0  0  0  0  0  0  0  0  0  0
  1  2  2  0  0  0  0
 13 14  1  0  0  0  0
  5  7  1  0  0  0  0
 14 15  2  0  0  0  0
 15  8  1  0  0  0  0
  3  4  2  0  0  0  0
  9 16  2  0  0  0  0
  7  8  1  0  0  0  0
 16 17  1  0  0  0  0
 17 18  2  0  0  0  0
  7  9  1  0  0  0  0
 18 19  1  0  0  0  0
  4  5  1  0  0  0  0
 19 20  2  0  0  0  0
 20  9  1  0  0  0  0
  7 10  1  0  0  0  0
  2 21  1  0  0  0  0
  2  3  1  0  0  0  0
 14 22  1  0  0  0  0
  8 11  2  0  0  0  0
 22 23  1  0  0  0  0
  5  6  2  0  0  0  0
 22 24  2  0  0  0  0
 11 12  1  0  0  0  0
 23 25  1  0  0  0  0
  6  1  1  0  0  0  0
 23 26  1  0  0  0  0
 26 27  1  0  0  0  0
 12 13  2  0  0  0  0
 25 28  1  0  0  0  0
M  END
> <Molecule Name>
DNDI1433775

> <CDD Number>
CDD-1535399

> <IC50_uM>
0.15 (n=1)

$$$$

SketchEl molfile

 16 17  0  0  0  0  0  0  0  0999 V2000
    5.0012   -6.2517    0.0000 C   0  0  0  0  0  0  0  0  0  0  0  0
    5.0000   -7.0788    0.0000 C   0  0  0  0  0  0  0  0  0  0  0  0
    5.7146   -7.4916    0.0000 N   0  0  0  0  0  0  0  0  0  0  0  0
    6.4308   -7.0784    0.0000 C   0  0  0  0  0  0  0  0  0  0  0  0
    6.4280   -6.2481    0.0000 C   0  0  0  0  0  0  0  0  0  0  0  0
    5.7128   -5.8391    0.0000 C   0  0  0  0  0  0  0  0  0  0  0  0
    7.1407   -5.8330    0.0000 C   0  0  0  0  0  0  0  0  0  0  0  0
    7.8565   -6.2427    0.0000 C   0  0  0  0  0  0  0  0  0  0  0  0
    7.1376   -5.0083    0.0000 O   0  0  0  0  0  0  0  0  0  0  0  0
    7.8563   -7.0651    0.0000 C   0  0  0  0  0  0  0  0  0  0  0  0
    8.5712   -7.4747    0.0000 C   0  0  0  0  0  0  0  0  0  0  0  0
    9.2849   -7.0596    0.0000 C   0  0  0  0  0  0  0  0  0  0  0  0
    9.2791   -6.2306    0.0000 C   0  0  0  0  0  0  0  0  0  0  0  0
    8.5636   -5.8247    0.0000 C   0  0  0  0  0  0  0  0  0  0  0  0
    8.5562   -5.0000    0.0000 F   0  0  0  0  0  0  0  0  0  0  0  0
   10.0013   -7.4683    0.0000 Cl  0  0  0  0  0  0  0  0  0  0  0  0
 12 13  1  0  0  0  0
  5  7  1  0  0  0  0
 13 14  2  0  0  0  0
 14  8  1  0  0  0  0
  3  4  2  0  0  0  0
  7  8  1  0  0  0  0
  7  9  1  0  0  0  0
  4  5  1  0  0  0  0
  2  3  1  0  0  0  0
  8 10  2  0  0  0  0
  5  6  2  0  0  0  0
 10 11  1  0  0  0  0
  6  1  1  0  0  0  0
 11 12  2  0  0  0  0
 14 15  1  0  0  0  0
  1  2  2  0  0  0  0
 12 16  1  0  0  0  0
M  END
> <Molecule Name>
DNDI1433776

> <CDD Number>
CDD-1535400

> <IC50_uM>
> 1.0 (n=1)

$$$$

SketchEl molfile

 31 33  0  0  0  0  0  0  0  0999 V2000
    5.7152   -9.9530    0.0000 C   0  0  0  0  0  0  0  0  0  0  0  0
    5.7140  -10.7795    0.0000 C   0  0  0  0  0  0  0  0  0  0  0  0
    6.4281  -11.1919    0.0000 C   0  0  0  0  0  0  0  0  0  0  0  0
    7.1438  -10.7790    0.0000 C   0  0  0  0  0  0  0  0  0  0  0  0
    7.1409   -9.9494    0.0000 C   0  0  0  0  0  0  0  0  0  0  0  0
    6.4263   -9.5407    0.0000 C   0  0  0  0  0  0  0  0  0  0  0  0
    7.8531   -9.5346    0.0000 C   0  0  0  0  0  0  0  0  0  0  0  0
    8.5683   -9.9440    0.0000 C   0  0  0  0  0  0  0  0  0  0  0  0
    7.8500   -8.7105    0.0000 N   0  0  0  0  0  0  0  0  0  0  0  0
    8.5681  -10.7657    0.0000 C   0  0  0  0  0  0  0  0  0  0  0  0
    9.2825  -11.1750    0.0000 N   0  0  0  0  0  0  0  0  0  0  0  0
    9.9957  -10.7602    0.0000 C   0  0  0  0  0  0  0  0  0  0  0  0
    9.9899   -9.9319    0.0000 C   0  0  0  0  0  0  0  0  0  0  0  0
    9.2749   -9.5263    0.0000 N   0  0  0  0  0  0  0  0  0  0  0  0
    8.5633   -8.3002    0.0000 C   0  0  0  0  0  0  0  0  0  0  0  0
    8.5622   -7.4797    0.0000 C   0  0  0  0  0  0  0  0  0  0  0  0
    7.8488   -7.0664    0.0000 C   0  0  0  0  0  0  0  0  0  0  0  0
    7.1348   -7.4800    0.0000 C   0  0  0  0  0  0  0  0  0  0  0  0
    7.1342   -8.3067    0.0000 C   0  0  0  0  0  0  0  0  0  0  0  0
    7.8488   -6.2423    0.0000 N   0  0  0  0  0  0  0  0  0  0  0  0
    8.5625   -5.8303    0.0000 S   0  0  0  0  0  0  0  0  0  0  0  0
    9.0037   -5.1310    0.0000 O   0  0  0  0  0  0  0  0  0  0  0  0
    9.2762   -6.2423    0.0000 C   0  0  0  0  0  0  0  0  0  0  0  0
    8.1286   -5.1008    0.0000 O   0  0  0  0  0  0  0  0  0  0  0  0
    9.9871   -5.8241    0.0000 C   0  0  0  0  0  0  0  0  0  0  0  0
   10.7042   -6.2302    0.0000 C   0  0  0  0  0  0  0  0  0  0  0  0
    9.9803   -5.0000    0.0000 C   0  0  0  0  0  0  0  0  0  0  0  0
    5.0000  -11.1910    0.0000 C   0  0  0  0  0  0  0  0  0  0  0  0
    4.2866  -10.7783    0.0000 F   0  0  0  0  0  0  0  0  0  0  0  0
    4.9993  -12.0151    0.0000 F   0  0  0  0  0  0  0  0  0  0  0  0
    4.7873  -10.3948    0.0000 F   0  0  0  0  0  0  0  0  0  0  0  0
  2 28  1  0  0  0  0
 28 29  1  0  0  0  0
 28 30  1  0  0  0  0
 28 31  1  0  0  0  0
 13 14  2  0  0  0  0
 14  8  1  0  0  0  0
  9 19  1  0  0  0  0
 15 16  1  0  0  0  0
 16 17  1  0  0  0  0
 17 18  1  0  0  0  0
 18 19  1  0  0  0  0
  3  4  2  0  0  0  0
 17 20  1  0  0  0  0
  7  8  1  0  0  0  0
 20 21  1  0  0  0  0
  7  9  1  0  0  0  0
 21 22  2  0  0  0  0
  4  5  1  0  0  0  0
 21 23  1  0  0  0  0
  2  3  1  0  0  0  0
 21 24  2  0  0  0  0
  8 10  2  0  0  0  0
 23 25  1  0  0  0  0
  5  6  2  0  0  0  0
 25 26  1  0  0  0  0
 10 11  1  0  0  0  0
 25 27  1  0  0  0  0
  6  1  1  0  0  0  0
 11 12  2  0  0  0  0
  1  2  2  0  0  0  0
  9 15  1  0  0  0  0
 12 13  1  0  0  0  0
  5  7  1  0  0  0  0
M  END
> <Molecule Name>
DNDI1433777

> <CDD Number>
CDD-1535401

> <IC50_uM>
0.55 (n=1)

$$$$

SketchEl molfile

 27 29  0  0  0  0  0  0  0  0999 V2000
    5.7159   -9.5113    0.0000 C   0  0  0  0  0  0  0  0  0  0  0  0
    5.7148  -10.3386    0.0000 C   0  0  0  0  0  0  0  0  0  0  0  0
    6.4296  -10.7515    0.0000 C   0  0  0  0  0  0  0  0  0  0  0  0
    7.1460  -10.3382    0.0000 C   0  0  0  0  0  0  0  0  0  0  0  0
    7.1431   -9.5077    0.0000 C   0  0  0  0  0  0  0  0  0  0  0  0
    6.4278   -9.0985    0.0000 C   0  0  0  0  0  0  0  0  0  0  0  0
    7.8560   -9.0925    0.0000 C   0  0  0  0  0  0  0  0  0  0  0  0
    8.5720   -9.5023    0.0000 C   0  0  0  0  0  0  0  0  0  0  0  0
    7.8529   -8.2675    0.0000 N   0  0  0  0  0  0  0  0  0  0  0  0
    8.5717  -10.3249    0.0000 C   0  0  0  0  0  0  0  0  0  0  0  0
    9.2869  -10.7346    0.0000 N   0  0  0  0  0  0  0  0  0  0  0  0
   10.0008  -10.3194    0.0000 C   0  0  0  0  0  0  0  0  0  0  0  0
    9.9950   -9.4902    0.0000 C   0  0  0  0  0  0  0  0  0  0  0  0
    9.2793   -9.0842    0.0000 C   0  0  0  0  0  0  0  0  0  0  0  0
    8.5670   -7.8568    0.0000 C   0  0  0  0  0  0  0  0  0  0  0  0
    8.5659   -7.0355    0.0000 C   0  0  0  0  0  0  0  0  0  0  0  0
    7.8517   -6.6218    0.0000 N   0  0  0  0  0  0  0  0  0  0  0  0
    7.1370   -7.0357    0.0000 C   0  0  0  0  0  0  0  0  0  0  0  0
    7.1364   -7.8634    0.0000 C   0  0  0  0  0  0  0  0  0  0  0  0
    7.8517   -5.7968    0.0000 C   0  0  0  0  0  0  0  0  0  0  0  0
    8.5661   -5.3844    0.0000 O   0  0  0  0  0  0  0  0  0  0  0  0
    5.0000  -10.7506    0.0000 Cl  0  0  0  0  0  0  0  0  0  0  0  0
    7.1373   -5.3843    0.0000 O   0  0  0  0  0  0  0  0  0  0  0  0
    9.2806   -5.7968    0.0000 C   0  0  0  0  0  0  0  0  0  0  0  0
    9.9950   -5.3844    0.0000 C   0  0  0  0  0  0  0  0  0  0  0  0
    9.2806   -6.6218    0.0000 C   0  0  0  0  0  0  0  0  0  0  0  0
    9.0671   -5.0000    0.0000 C   0  0  0  0  0  0  0  0  0  0  0  0
 17 18  1  0  0  0  0
 18 19  1  0  0  0  0
  3  4  2  0  0  0  0
 17 20  1  0  0  0  0
  7  8  1  0  0  0  0
 20 21  1  0  0  0  0
  7  9  1  0  0  0  0
  4  5  1  0  0  0  0
  2  3  1  0  0  0  0
  8 10  2  0  0  0  0
  5  6  2  0  0  0  0
 10 11  1  0  0  0  0
  6  1  1  0  0  0  0
 11 12  2  0  0  0  0
  1  2  2  0  0  0  0
  9 15  1  0  0  0  0
 12 13  1  0  0  0  0
  5  7  1  0  0  0  0
  2 22  1  0  0  0  0
 13 14  2  0  0  0  0
 20 23  2  0  0  0  0
 14  8  1  0  0  0  0
 21 24  1  0  0  0  0
  9 19  1  0  0  0  0
 24 25  1  0  0  0  0
 15 16  1  0  0  0  0
 24 26  1  0  0  0  0
 16 17  1  0  0  0  0
 24 27  1  0  0  0  0
M  END
> <Molecule Name>
DNDI1433778

> <CDD Number>
CDD-1535402

> <IC50_uM>
0.027 (n=1)

$$$$

SketchEl molfile

 27 29  0  0  0  0  0  0  0  0999 V2000
    5.7159   -9.5113    0.0000 C   0  0  0  0  0  0  0  0  0  0  0  0
    5.7148  -10.3386    0.0000 C   0  0  0  0  0  0  0  0  0  0  0  0
    6.4296  -10.7515    0.0000 C   0  0  0  0  0  0  0  0  0  0  0  0
    7.1460  -10.3382    0.0000 C   0  0  0  0  0  0  0  0  0  0  0  0
    7.1431   -9.5077    0.0000 C   0  0  0  0  0  0  0  0  0  0  0  0
    6.4278   -9.0985    0.0000 C   0  0  0  0  0  0  0  0  0  0  0  0
    7.8560   -9.0925    0.0000 C   0  0  0  0  0  0  0  0  0  0  0  0
    8.5720   -9.5023    0.0000 C   0  0  0  0  0  0  0  0  0  0  0  0
    7.8529   -8.2675    0.0000 N   0  0  0  0  0  0  0  0  0  0  0  0
    8.5717  -10.3249    0.0000 C   0  0  0  0  0  0  0  0  0  0  0  0
    9.2869  -10.7346    0.0000 N   0  0  0  0  0  0  0  0  0  0  0  0
   10.0008  -10.3194    0.0000 C   0  0  0  0  0  0  0  0  0  0  0  0
    9.9950   -9.4902    0.0000 N   0  0  0  0  0  0  0  0  0  0  0  0
    9.2793   -9.0842    0.0000 C   0  0  0  0  0  0  0  0  0  0  0  0
    8.5670   -7.8568    0.0000 C   0  0  0  0  0  0  0  0  0  0  0  0
    8.5659   -7.0355    0.0000 C   0  0  0  0  0  0  0  0  0  0  0  0
    7.8517   -6.6218    0.0000 N   0  0  0  0  0  0  0  0  0  0  0  0
    7.1370   -7.0357    0.0000 C   0  0  0  0  0  0  0  0  0  0  0  0
    7.1364   -7.8634    0.0000 C   0  0  0  0  0  0  0  0  0  0  0  0
    7.8517   -5.7968    0.0000 C   0  0  0  0  0  0  0  0  0  0  0  0
    8.5661   -5.3844    0.0000 O   0  0  0  0  0  0  0  0  0  0  0  0
    5.0000  -10.7506    0.0000 Cl  0  0  0  0  0  0  0  0  0  0  0  0
    7.1373   -5.3843    0.0000 O   0  0  0  0  0  0  0  0  0  0  0  0
    9.2806   -5.7968    0.0000 C   0  0  0  0  0  0  0  0  0  0  0  0
    9.9950   -5.3844    0.0000 C   0  0  0  0  0  0  0  0  0  0  0  0
    9.2806   -6.6218    0.0000 C   0  0  0  0  0  0  0  0  0  0  0  0
    9.0671   -5.0000    0.0000 C   0  0  0  0  0  0  0  0  0  0  0  0
 17 18  1  0  0  0  0
 18 19  1  0  0  0  0
  3  4  2  0  0  0  0
 17 20  1  0  0  0  0
  7  8  1  0  0  0  0
 20 21  1  0  0  0  0
  7  9  1  0  0  0  0
  4  5  1  0  0  0  0
  2  3  1  0  0  0  0
  8 10  2  0  0  0  0
  5  6  2  0  0  0  0
 10 11  1  0  0  0  0
  6  1  1  0  0  0  0
 11 12  2  0  0  0  0
  1  2  2  0  0  0  0
  9 15  1  0  0  0  0
 12 13  1  0  0  0  0
  5  7  1  0  0  0  0
  2 22  1  0  0  0  0
 13 14  2  0  0  0  0
 20 23  2  0  0  0  0
 14  8  1  0  0  0  0
 21 24  1  0  0  0  0
  9 19  1  0  0  0  0
 24 25  1  0  0  0  0
 15 16  1  0  0  0  0
 24 26  1  0  0  0  0
 16 17  1  0  0  0  0
 24 27  1  0  0  0  0
M  END
> <Molecule Name>
DNDI1433779

> <CDD Number>
CDD-1535403

> <IC50_uM>
0.13 (n=1)

$$$$

SketchEl molfile

 31 34  0  0  0  0  0  0  0  0999 V2000
    5.7189   -7.9011    0.0000 C   0  0  0  0  0  0  0  0  0  0  0  0
    5.7178   -8.7319    0.0000 C   0  0  0  0  0  0  0  0  0  0  0  0
    6.4356   -9.1465    0.0000 C   0  0  0  0  0  0  0  0  0  0  0  0
    7.1550   -8.7314    0.0000 C   0  0  0  0  0  0  0  0  0  0  0  0
    7.1521   -7.8974    0.0000 C   0  0  0  0  0  0  0  0  0  0  0  0
    6.4338   -7.4866    0.0000 C   0  0  0  0  0  0  0  0  0  0  0  0
    7.8680   -7.4805    0.0000 C   0  0  0  0  0  0  0  0  0  0  0  0
    8.5870   -7.8920    0.0000 C   0  0  0  0  0  0  0  0  0  0  0  0
    7.8649   -6.6521    0.0000 C   0  0  0  0  0  0  0  0  0  0  0  0
    8.4818   -7.1104    0.0000 O   0  0  0  0  0  0  0  0  0  0  0  0
    8.5868   -8.7181    0.0000 C   0  0  0  0  0  0  0  0  0  0  0  0
    9.3049   -9.1295    0.0000 C   0  0  0  0  0  0  0  0  0  0  0  0
   10.0218   -8.7126    0.0000 C   0  0  0  0  0  0  0  0  0  0  0  0
   10.0160   -7.8799    0.0000 C   0  0  0  0  0  0  0  0  0  0  0  0
    9.2973   -7.4722    0.0000 C   0  0  0  0  0  0  0  0  0  0  0  0
    8.5825   -6.2400    0.0000 C   0  0  0  0  0  0  0  0  0  0  0  0
    8.5798   -5.4124    0.0000 C   0  0  0  0  0  0  0  0  0  0  0  0
    7.8602   -5.0000    0.0000 C   0  0  0  0  0  0  0  0  0  0  0  0
    7.1420   -5.4214    0.0000 N   0  0  0  0  0  0  0  0  0  0  0  0
    7.1483   -6.2477    0.0000 C   0  0  0  0  0  0  0  0  0  0  0  0
    5.0000   -9.1456    0.0000 Cl  0  0  0  0  0  0  0  0  0  0  0  0
   10.7304   -7.4604    0.0000 C   0  0  0  0  0  0  0  0  0  0  0  0
   11.4508   -7.8694    0.0000 N   0  0  0  0  0  0  0  0  0  0  0  0
   10.7243   -6.6320    0.0000 O   0  0  0  0  0  0  0  0  0  0  0  0
   12.1652   -7.4499    0.0000 C   0  0  0  0  0  0  0  0  0  0  0  0
   12.8857   -7.8589    0.0000 C   0  0  0  0  0  0  0  0  0  0  0  0
   12.8867   -8.6846    0.0000 C   0  0  0  0  0  0  0  0  0  0  0  0
   13.6063   -9.0935    0.0000 C   0  0  0  0  0  0  0  0  0  0  0  0
   14.3217   -8.6740    0.0000 C   0  0  0  0  0  0  0  0  0  0  0  0
   14.3129   -7.8414    0.0000 C   0  0  0  0  0  0  0  0  0  0  0  0
   13.5928   -7.4362    0.0000 C   0  0  0  0  0  0  0  0  0  0  0  0
  9 16  2  0  0  0  0
  7  8  1  0  0  0  0
 16 17  1  0  0  0  0
 17 18  2  0  0  0  0
  7  9  1  0  0  0  0
 18 19  1  0  0  0  0
  4  5  1  0  0  0  0
 19 20  2  0  0  0  0
 20  9  1  0  0  0  0
  7 10  1  0  0  0  0
  2 21  1  0  0  0  0
  2  3  1  0  0  0  0
 14 22  1  0  0  0  0
  8 11  2  0  0  0  0
 22 23  1  0  0  0  0
  5  6  2  0  0  0  0
 22 24  2  0  0  0  0
 11 12  1  0  0  0  0
  6  1  1  0  0  0  0
 12 13  2  0  0  0  0
 23 25  1  0  0  0  0
  1  2  2  0  0  0  0
 25 26  1  0  0  0  0
 13 14  1  0  0  0  0
 26 27  2  0  0  0  0
  5  7  1  0  0  0  0
 27 28  1  0  0  0  0
 14 15  2  0  0  0  0
 28 29  2  0  0  0  0
 15  8  1  0  0  0  0
 29 30  1  0  0  0  0
  3  4  2  0  0  0  0
 30 31  2  0  0  0  0
 31 26  1  0  0  0  0
M  END
> <Molecule Name>
DNDI1434919

> <CDD Number>
CDD-1535404

> <IC50_uM>
0.16 (n=1)

$$$$

SketchEl molfile

 27 30  0  0  0  0  0  0  0  0999 V2000
    5.7160  -10.3613    0.0000 C   0  0  0  0  0  0  0  0  0  0  0  0
    5.7149  -11.1888    0.0000 C   0  0  0  0  0  0  0  0  0  0  0  0
    6.4297  -11.6017    0.0000 C   0  0  0  0  0  0  0  0  0  0  0  0
    7.1463  -11.1883    0.0000 C   0  0  0  0  0  0  0  0  0  0  0  0
    7.1434  -10.3577    0.0000 C   0  0  0  0  0  0  0  0  0  0  0  0
    6.4279   -9.9485    0.0000 C   0  0  0  0  0  0  0  0  0  0  0  0
    7.8564   -9.9425    0.0000 C   0  0  0  0  0  0  0  0  0  0  0  0
    8.5725  -10.3523    0.0000 C   0  0  0  0  0  0  0  0  0  0  0  0
    7.8533   -9.1174    0.0000 N   0  0  0  0  0  0  0  0  0  0  0  0
    8.5722  -11.1750    0.0000 C   0  0  0  0  0  0  0  0  0  0  0  0
    9.2875  -11.5848    0.0000 N   0  0  0  0  0  0  0  0  0  0  0  0
   10.0014  -11.1695    0.0000 C   0  0  0  0  0  0  0  0  0  0  0  0
    9.9956  -10.3402    0.0000 N   0  0  0  0  0  0  0  0  0  0  0  0
    9.2798   -9.9342    0.0000 C   0  0  0  0  0  0  0  0  0  0  0  0
    8.5675   -8.7067    0.0000 C   0  0  0  0  0  0  0  0  0  0  0  0
    8.5663   -7.8852    0.0000 C   0  0  0  0  0  0  0  0  0  0  0  0
    7.8521   -7.4715    0.0000 N   0  0  0  0  0  0  0  0  0  0  0  0
    7.1373   -7.8855    0.0000 C   0  0  0  0  0  0  0  0  0  0  0  0
    7.1367   -8.7132    0.0000 C   0  0  0  0  0  0  0  0  0  0  0  0
    5.0000  -11.6008    0.0000 Cl  0  0  0  0  0  0  0  0  0  0  0  0
    6.4255   -9.1235    0.0000 F   0  0  0  0  0  0  0  0  0  0  0  0
    7.8521   -6.6464    0.0000 C   0  0  0  0  0  0  0  0  0  0  0  0
    8.5677   -6.2377    0.0000 C   0  0  0  0  0  0  0  0  0  0  0  0
    8.5681   -5.4134    0.0000 C   0  0  0  0  0  0  0  0  0  0  0  0
    7.8530   -5.0000    0.0000 C   0  0  0  0  0  0  0  0  0  0  0  0
    7.1361   -5.4169    0.0000 C   0  0  0  0  0  0  0  0  0  0  0  0
    7.1393   -6.2399    0.0000 C   0  0  0  0  0  0  0  0  0  0  0  0
  3  4  2  0  0  0  0
  7  8  1  0  0  0  0
  7  9  1  0  0  0  0
  4  5  1  0  0  0  0
  2  3  1  0  0  0  0
  8 10  2  0  0  0  0
  5  6  2  0  0  0  0
 10 11  1  0  0  0  0
  6  1  1  0  0  0  0
 11 12  2  0  0  0  0
  1  2  2  0  0  0  0
  9 15  1  0  0  0  0
 12 13  1  0  0  0  0
  5  7  1  0  0  0  0
  2 20  1  0  0  0  0
 13 14  2  0  0  0  0
  6 21  1  0  0  0  0
 14  8  1  0  0  0  0
 17 22  1  0  0  0  0
  9 19  1  0  0  0  0
 22 23  2  0  0  0  0
 15 16  1  0  0  0  0
 23 24  1  0  0  0  0
 16 17  1  0  0  0  0
 24 25  2  0  0  0  0
 17 18  1  0  0  0  0
 25 26  1  0  0  0  0
 18 19  1  0  0  0  0
 26 27  2  0  0  0  0
 27 22  1  0  0  0  0
M  END
> <Molecule Name>
DNDI1434920

> <CDD Number>
CDD-1535405

> <IC50_uM>
0.078 (n=1)

$$$$

SketchEl molfile

 29 32  0  0  0  0  0  0  0  0999 V2000
    5.7160  -10.3610    0.0000 C   0  0  0  0  0  0  0  0  0  0  0  0
    5.7148  -11.1884    0.0000 C   0  0  0  0  0  0  0  0  0  0  0  0
    6.4297  -11.6013    0.0000 C   0  0  0  0  0  0  0  0  0  0  0  0
    7.1461  -11.1879    0.0000 C   0  0  0  0  0  0  0  0  0  0  0  0
    7.1433  -10.3574    0.0000 C   0  0  0  0  0  0  0  0  0  0  0  0
    6.4279   -9.9482    0.0000 C   0  0  0  0  0  0  0  0  0  0  0  0
    7.8562   -9.9422    0.0000 C   0  0  0  0  0  0  0  0  0  0  0  0
    8.5723  -10.3520    0.0000 C   0  0  0  0  0  0  0  0  0  0  0  0
    7.8531   -9.1172    0.0000 N   0  0  0  0  0  0  0  0  0  0  0  0
    8.5720  -11.1747    0.0000 C   0  0  0  0  0  0  0  0  0  0  0  0
    9.2872  -11.5844    0.0000 N   0  0  0  0  0  0  0  0  0  0  0  0
   10.0011  -11.1692    0.0000 C   0  0  0  0  0  0  0  0  0  0  0  0
    9.9954  -10.3399    0.0000 N   0  0  0  0  0  0  0  0  0  0  0  0
    9.2796   -9.9339    0.0000 C   0  0  0  0  0  0  0  0  0  0  0  0
    8.5672   -8.7064    0.0000 C   0  0  0  0  0  0  0  0  0  0  0  0
    8.5661   -7.8850    0.0000 C   0  0  0  0  0  0  0  0  0  0  0  0
    7.8519   -7.4713    0.0000 N   0  0  0  0  0  0  0  0  0  0  0  0
    7.1371   -7.8853    0.0000 C   0  0  0  0  0  0  0  0  0  0  0  0
    7.1366   -8.7129    0.0000 C   0  0  0  0  0  0  0  0  0  0  0  0
    5.0000  -11.6004    0.0000 Cl  0  0  0  0  0  0  0  0  0  0  0  0
    6.4254   -9.1232    0.0000 F   0  0  0  0  0  0  0  0  0  0  0  0
    7.8519   -6.6463    0.0000 C   0  0  0  0  0  0  0  0  0  0  0  0
    8.5675   -6.2376    0.0000 C   0  0  0  0  0  0  0  0  0  0  0  0
    8.5679   -5.4133    0.0000 C   0  0  0  0  0  0  0  0  0  0  0  0
    7.8528   -5.0000    0.0000 C   0  0  0  0  0  0  0  0  0  0  0  0
    7.1360   -5.4169    0.0000 C   0  0  0  0  0  0  0  0  0  0  0  0
    7.1391   -6.2398    0.0000 C   0  0  0  0  0  0  0  0  0  0  0  0
    9.2809   -6.6519    0.0000 O   0  0  0  0  0  0  0  0  0  0  0  0
    9.9926   -6.2317    0.0000 C   0  0  0  0  0  0  0  0  0  0  0  0
  7  8  1  0  0  0  0
  7  9  1  0  0  0  0
  4  5  1  0  0  0  0
  2  3  1  0  0  0  0
  8 10  2  0  0  0  0
  5  6  2  0  0  0  0
 10 11  1  0  0  0  0
  6  1  1  0  0  0  0
 11 12  2  0  0  0  0
  1  2  2  0  0  0  0
  9 15  1  0  0  0  0
 12 13  1  0  0  0  0
  5  7  1  0  0  0  0
  2 20  1  0  0  0  0
 13 14  2  0  0  0  0
  6 21  1  0  0  0  0
 14  8  1  0  0  0  0
 17 22  1  0  0  0  0
  9 19  1  0  0  0  0
 22 23  2  0  0  0  0
 15 16  1  0  0  0  0
 23 24  1  0  0  0  0
 16 17  1  0  0  0  0
 24 25  2  0  0  0  0
 17 18  1  0  0  0  0
 25 26  1  0  0  0  0
 18 19  1  0  0  0  0
 26 27  2  0  0  0  0
 27 22  1  0  0  0  0
 23 28  1  0  0  0  0
  3  4  2  0  0  0  0
 28 29  1  0  0  0  0
M  END
> <Molecule Name>
DNDI1434921

> <CDD Number>
CDD-1535406

> <IC50_uM>
0.065 (n=1)

$$$$

SketchEl molfile

 25 27  0  0  0  0  0  0  0  0999 V2000
    5.7159   -9.5406    0.0000 C   0  0  0  0  0  0  0  0  0  0  0  0
    5.7148  -10.3679    0.0000 C   0  0  0  0  0  0  0  0  0  0  0  0
    6.4295  -10.7808    0.0000 C   0  0  0  0  0  0  0  0  0  0  0  0
    7.1459  -10.3675    0.0000 C   0  0  0  0  0  0  0  0  0  0  0  0
    7.1431   -9.5370    0.0000 C   0  0  0  0  0  0  0  0  0  0  0  0
    6.4277   -9.1279    0.0000 C   0  0  0  0  0  0  0  0  0  0  0  0
    7.8560   -9.1218    0.0000 C   0  0  0  0  0  0  0  0  0  0  0  0
    8.5719   -9.5316    0.0000 C   0  0  0  0  0  0  0  0  0  0  0  0
    7.8528   -8.2969    0.0000 N   0  0  0  0  0  0  0  0  0  0  0  0
    8.5717  -10.3542    0.0000 C   0  0  0  0  0  0  0  0  0  0  0  0
    9.2868  -10.7639    0.0000 N   0  0  0  0  0  0  0  0  0  0  0  0
   10.0007  -10.3487    0.0000 C   0  0  0  0  0  0  0  0  0  0  0  0
    9.9949   -9.5195    0.0000 C   0  0  0  0  0  0  0  0  0  0  0  0
    9.2792   -9.1135    0.0000 C   0  0  0  0  0  0  0  0  0  0  0  0
    8.5669   -7.8862    0.0000 C   0  0  0  0  0  0  0  0  0  0  0  0
    8.5658   -7.0648    0.0000 C   0  0  0  0  0  0  0  0  0  0  0  0
    7.8516   -6.6512    0.0000 N   0  0  0  0  0  0  0  0  0  0  0  0
    7.1369   -7.0651    0.0000 C   0  0  0  0  0  0  0  0  0  0  0  0
    7.1364   -7.8927    0.0000 C   0  0  0  0  0  0  0  0  0  0  0  0
    5.0000  -10.7799    0.0000 Cl  0  0  0  0  0  0  0  0  0  0  0  0
    7.8516   -5.8262    0.0000 S   0  0  0  0  0  0  0  0  0  0  0  0
    8.5672   -5.4176    0.0000 C   0  0  0  0  0  0  0  0  0  0  0  0
    9.2806   -5.8319    0.0000 C   0  0  0  0  0  0  0  0  0  0  0  0
    7.1382   -5.4121    0.0000 O   0  0  0  0  0  0  0  0  0  0  0  0
    7.8522   -5.0000    0.0000 O   0  0  0  0  0  0  0  0  0  0  0  0
  7  9  1  0  0  0  0
  4  5  1  0  0  0  0
  2  3  1  0  0  0  0
  8 10  2  0  0  0  0
  5  6  2  0  0  0  0
 10 11  1  0  0  0  0
  6  1  1  0  0  0  0
 11 12  2  0  0  0  0
  1  2  2  0  0  0  0
  9 15  1  0  0  0  0
 12 13  1  0  0  0  0
  5  7  1  0  0  0  0
  2 20  1  0  0  0  0
 13 14  2  0  0  0  0
 14  8  1  0  0  0  0
 17 21  1  0  0  0  0
  9 19  1  0  0  0  0
 21 22  1  0  0  0  0
 15 16  1  0  0  0  0
 16 17  1  0  0  0  0
 17 18  1  0  0  0  0
 18 19  1  0  0  0  0
 22 23  1  0  0  0  0
  3  4  2  0  0  0  0
 21 24  2  0  0  0  0
  7  8  1  0  0  0  0
 21 25  2  0  0  0  0
M  END
> <Molecule Name>
DNDI1434922

> <CDD Number>
CDD-1535407

> <IC50_uM>
0.047 (n=1)

$$$$

SketchEl molfile

 29 32  0  0  0  0  0  0  0  0999 V2000
    7.8525   -6.6398    0.0000 S   0  0  0  0  0  0  0  0  0  0  0  0
    7.8525   -7.4650    0.0000 N   0  0  0  0  0  0  0  0  0  0  0  0
    7.8537   -9.1112    0.0000 N   0  0  0  0  0  0  0  0  0  0  0  0
    7.1388   -6.2255    0.0000 O   0  0  0  0  0  0  0  0  0  0  0  0
    7.8531   -5.8134    0.0000 O   0  0  0  0  0  0  0  0  0  0  0  0
    7.8568   -9.9364    0.0000 C   0  0  0  0  0  0  0  0  0  0  0  0
    7.1376   -7.8791    0.0000 C   0  0  0  0  0  0  0  0  0  0  0  0
    8.5669   -7.8788    0.0000 C   0  0  0  0  0  0  0  0  0  0  0  0
    8.5683   -6.2310    0.0000 C   0  0  0  0  0  0  0  0  0  0  0  0
    8.5680   -8.7004    0.0000 C   0  0  0  0  0  0  0  0  0  0  0  0
    7.1370   -8.7069    0.0000 C   0  0  0  0  0  0  0  0  0  0  0  0
    8.5730  -10.3463    0.0000 C   0  0  0  0  0  0  0  0  0  0  0  0
    9.2881  -11.5790    0.0000 N   0  0  0  0  0  0  0  0  0  0  0  0
    7.1437  -10.3517    0.0000 C   0  0  0  0  0  0  0  0  0  0  0  0
    6.4282   -9.9425    0.0000 C   0  0  0  0  0  0  0  0  0  0  0  0
    7.1466  -11.1824    0.0000 C   0  0  0  0  0  0  0  0  0  0  0  0
    5.0000  -11.5950    0.0000 Cl  0  0  0  0  0  0  0  0  0  0  0  0
    5.7150  -11.1829    0.0000 C   0  0  0  0  0  0  0  0  0  0  0  0
    8.5728  -11.1692    0.0000 C   0  0  0  0  0  0  0  0  0  0  0  0
    5.7161  -10.3554    0.0000 C   0  0  0  0  0  0  0  0  0  0  0  0
    6.4300  -11.5959    0.0000 C   0  0  0  0  0  0  0  0  0  0  0  0
   10.0022  -11.1637    0.0000 C   0  0  0  0  0  0  0  0  0  0  0  0
    9.2805   -9.9281    0.0000 C   0  0  0  0  0  0  0  0  0  0  0  0
    9.2782   -6.6486    0.0000 C   0  0  0  0  0  0  0  0  0  0  0  0
    8.5686   -5.4105    0.0000 C   0  0  0  0  0  0  0  0  0  0  0  0
    9.9964  -10.3342    0.0000 C   0  0  0  0  0  0  0  0  0  0  0  0
    9.2809   -5.0000    0.0000 C   0  0  0  0  0  0  0  0  0  0  0  0
    9.9935   -6.2405    0.0000 C   0  0  0  0  0  0  0  0  0  0  0  0
    9.9978   -5.4154    0.0000 C   0  0  0  0  0  0  0  0  0  0  0  0
 14 15  2  0  0  0  0
 19 13  1  0  0  0  0
 15 20  1  0  0  0  0
 13 22  2  0  0  0  0
 20 18  2  0  0  0  0
  3 10  1  0  0  0  0
 22 26  1  0  0  0  0
 14  6  1  0  0  0  0
 18 17  1  0  0  0  0
 26 23  2  0  0  0  0
 23 12  1  0  0  0  0
  2  1  1  0  0  0  0
  3 11  1  0  0  0  0
  1  9  1  0  0  0  0
 10  8  1  0  0  0  0
  8  2  1  0  0  0  0
  2  7  1  0  0  0  0
  7 11  1  0  0  0  0
 21 16  2  0  0  0  0
  1  4  2  0  0  0  0
  6 12  1  0  0  0  0
  1  5  2  0  0  0  0
  9 24  2  0  0  0  0
  6  3  1  0  0  0  0
 24 28  1  0  0  0  0
 16 14  1  0  0  0  0
 28 29  2  0  0  0  0
 18 21  1  0  0  0  0
 29 27  1  0  0  0  0
 12 19  2  0  0  0  0
 27 25  2  0  0  0  0
 25  9  1  0  0  0  0
M  END
> <Molecule Name>
DNDI1434923

> <CDD Number>
CDD-1535408

> <IC50_uM>
0.0085 (n=1)

$$$$

SketchEl molfile

 26 28  0  0  0  0  0  0  0  0999 V2000
    7.8518   -6.2337    0.0000 S   0  0  0  0  0  0  0  0  0  0  0  0
    7.8518   -7.0587    0.0000 N   0  0  0  0  0  0  0  0  0  0  0  0
    7.8530   -8.7045    0.0000 N   0  0  0  0  0  0  0  0  0  0  0  0
    7.1383   -5.8195    0.0000 O   0  0  0  0  0  0  0  0  0  0  0  0
    7.8524   -5.4074    0.0000 O   0  0  0  0  0  0  0  0  0  0  0  0
    7.8562   -9.5295    0.0000 C   0  0  0  0  0  0  0  0  0  0  0  0
    7.1371   -7.4727    0.0000 C   0  0  0  0  0  0  0  0  0  0  0  0
    8.5660   -7.4724    0.0000 C   0  0  0  0  0  0  0  0  0  0  0  0
    8.5674   -5.8250    0.0000 C   0  0  0  0  0  0  0  0  0  0  0  0
    8.5672   -8.2938    0.0000 C   0  0  0  0  0  0  0  0  0  0  0  0
    7.1365   -8.3003    0.0000 C   0  0  0  0  0  0  0  0  0  0  0  0
    8.5722   -9.9393    0.0000 C   0  0  0  0  0  0  0  0  0  0  0  0
    9.2871  -11.1717    0.0000 N   0  0  0  0  0  0  0  0  0  0  0  0
    7.1432   -9.9447    0.0000 C   0  0  0  0  0  0  0  0  0  0  0  0
    6.4278   -9.5356    0.0000 C   0  0  0  0  0  0  0  0  0  0  0  0
    7.1461  -10.7752    0.0000 C   0  0  0  0  0  0  0  0  0  0  0  0
    5.0000  -11.1877    0.0000 Cl  0  0  0  0  0  0  0  0  0  0  0  0
    5.7148  -10.7757    0.0000 C   0  0  0  0  0  0  0  0  0  0  0  0
    8.5719  -10.7620    0.0000 C   0  0  0  0  0  0  0  0  0  0  0  0
    5.7160   -9.9483    0.0000 C   0  0  0  0  0  0  0  0  0  0  0  0
    6.4296  -11.1886    0.0000 C   0  0  0  0  0  0  0  0  0  0  0  0
   10.0010  -10.7565    0.0000 C   0  0  0  0  0  0  0  0  0  0  0  0
    9.2795   -9.5212    0.0000 C   0  0  0  0  0  0  0  0  0  0  0  0
    9.2772   -6.2425    0.0000 C   0  0  0  0  0  0  0  0  0  0  0  0
    9.9953   -9.9272    0.0000 N   0  0  0  0  0  0  0  0  0  0  0  0
    8.5727   -5.0000    0.0000 C   0  0  0  0  0  0  0  0  0  0  0  0
 14 15  2  0  0  0  0
 19 13  1  0  0  0  0
 15 20  1  0  0  0  0
 13 22  2  0  0  0  0
 20 18  2  0  0  0  0
  3 10  1  0  0  0  0
 22 25  1  0  0  0  0
 14  6  1  0  0  0  0
 18 17  1  0  0  0  0
 25 23  2  0  0  0  0
 23 12  1  0  0  0  0
  2  1  1  0  0  0  0
  3 11  1  0  0  0  0
  1  9  1  0  0  0  0
 10  8  1  0  0  0  0
  8  2  1  0  0  0  0
  2  7  1  0  0  0  0
  7 11  1  0  0  0  0
 21 16  2  0  0  0  0
  1  4  2  0  0  0  0
  6 12  1  0  0  0  0
  1  5  2  0  0  0  0
  9 24  1  0  0  0  0
  6  3  1  0  0  0  0
 16 14  1  0  0  0  0
 18 21  1  0  0  0  0
 12 19  2  0  0  0  0
  9 26  1  0  0  0  0
M  END
> <Molecule Name>
DNDI1434924

> <CDD Number>
CDD-1535409

> <IC50_uM>
0.23 (n=1)

$$$$

SketchEl molfile

 21 23  0  0  0  0  0  0  0  0999 V2000
    7.8517   -5.8249    0.0000 N   0  0  0  0  0  0  0  0  0  0  0  0
    7.8529   -7.4707    0.0000 N   0  0  0  0  0  0  0  0  0  0  0  0
    7.8560   -8.2956    0.0000 C   0  0  0  0  0  0  0  0  0  0  0  0
    7.1370   -6.2389    0.0000 C   0  0  0  0  0  0  0  0  0  0  0  0
    8.5658   -6.2386    0.0000 C   0  0  0  0  0  0  0  0  0  0  0  0
    8.5670   -7.0600    0.0000 C   0  0  0  0  0  0  0  0  0  0  0  0
    7.1364   -7.0665    0.0000 C   0  0  0  0  0  0  0  0  0  0  0  0
    8.5720   -8.7054    0.0000 C   0  0  0  0  0  0  0  0  0  0  0  0
    9.2869   -9.9377    0.0000 N   0  0  0  0  0  0  0  0  0  0  0  0
    7.1431   -8.7108    0.0000 C   0  0  0  0  0  0  0  0  0  0  0  0
    6.4277   -8.3017    0.0000 C   0  0  0  0  0  0  0  0  0  0  0  0
    7.1460   -9.5413    0.0000 C   0  0  0  0  0  0  0  0  0  0  0  0
    5.0000   -9.9537    0.0000 Cl  0  0  0  0  0  0  0  0  0  0  0  0
    5.7148   -9.5417    0.0000 C   0  0  0  0  0  0  0  0  0  0  0  0
    8.5717   -9.5280    0.0000 C   0  0  0  0  0  0  0  0  0  0  0  0
    5.7159   -8.7144    0.0000 C   0  0  0  0  0  0  0  0  0  0  0  0
    6.4295   -9.9546    0.0000 C   0  0  0  0  0  0  0  0  0  0  0  0
   10.0007   -9.5225    0.0000 C   0  0  0  0  0  0  0  0  0  0  0  0
    9.2792   -8.2873    0.0000 C   0  0  0  0  0  0  0  0  0  0  0  0
    9.9950   -8.6933    0.0000 N   0  0  0  0  0  0  0  0  0  0  0  0
    7.8517   -5.0000    0.0000 H   0  0  0  0  0  0  0  0  0  0  0  0
 10 11  2  0  0  0  0
 15  9  1  0  0  0  0
 11 16  1  0  0  0  0
  9 18  2  0  0  0  0
 16 14  2  0  0  0  0
  2  6  1  0  0  0  0
 18 20  1  0  0  0  0
 10  3  1  0  0  0  0
 14 13  1  0  0  0  0
 20 19  2  0  0  0  0
 19  8  1  0  0  0  0
  2  7  1  0  0  0  0
  6  5  1  0  0  0  0
  5  1  1  0  0  0  0
  1  4  1  0  0  0  0
  4  7  1  0  0  0  0
 17 12  2  0  0  0  0
  3  8  1  0  0  0  0
  3  2  1  0  0  0  0
 12 10  1  0  0  0  0
 14 17  1  0  0  0  0
  8 15  2  0  0  0  0
  1 21  1  0  0  0  0
M  END
> <Molecule Name>
DNDI1434925

> <CDD Number>
CDD-1535410

> <IC50_uM>
> 1.0 (n=1)

$$$$

SketchEl molfile

 29 31  0  0  0  0  0  0  0  0999 V2000
    7.8549   -7.0710    0.0000 C   0  0  0  0  0  0  0  0  0  0  0  0
    7.8561   -8.7185    0.0000 N   0  0  0  0  0  0  0  0  0  0  0  0
    7.8592   -9.5444    0.0000 C   0  0  0  0  0  0  0  0  0  0  0  0
    7.1394   -7.4854    0.0000 C   0  0  0  0  0  0  0  0  0  0  0  0
    8.5699   -7.4851    0.0000 C   0  0  0  0  0  0  0  0  0  0  0  0
    8.5710   -8.3074    0.0000 C   0  0  0  0  0  0  0  0  0  0  0  0
    7.1388   -8.3139    0.0000 C   0  0  0  0  0  0  0  0  0  0  0  0
    8.5760   -9.9547    0.0000 C   0  0  0  0  0  0  0  0  0  0  0  0
    9.2917  -11.1884    0.0000 N   0  0  0  0  0  0  0  0  0  0  0  0
    7.1455   -9.9601    0.0000 C   0  0  0  0  0  0  0  0  0  0  0  0
    6.4294   -9.5505    0.0000 C   0  0  0  0  0  0  0  0  0  0  0  0
    7.1484  -10.7915    0.0000 C   0  0  0  0  0  0  0  0  0  0  0  0
    5.0000  -11.2044    0.0000 F   0  0  0  0  0  0  0  0  0  0  0  0
    5.7156  -10.7920    0.0000 C   0  0  0  0  0  0  0  0  0  0  0  0
    8.5758  -10.7782    0.0000 C   0  0  0  0  0  0  0  0  0  0  0  0
    5.7167   -9.9637    0.0000 C   0  0  0  0  0  0  0  0  0  0  0  0
    6.4312  -11.2053    0.0000 C   0  0  0  0  0  0  0  0  0  0  0  0
   10.0064  -10.7727    0.0000 C   0  0  0  0  0  0  0  0  0  0  0  0
    9.2841   -9.5361    0.0000 N   0  0  0  0  0  0  0  0  0  0  0  0
   10.0006   -9.9425    0.0000 C   0  0  0  0  0  0  0  0  0  0  0  0
    7.8549   -6.2451    0.0000 N   0  0  0  0  0  0  0  0  0  0  0  0
    7.8643  -11.2033    0.0000 F   0  0  0  0  0  0  0  0  0  0  0  0
    8.5702   -5.8321    0.0000 C   0  0  0  0  0  0  0  0  0  0  0  0
    8.5702   -5.0062    0.0000 O   0  0  0  0  0  0  0  0  0  0  0  0
    9.2854   -6.2451    0.0000 O   0  0  0  0  0  0  0  0  0  0  0  0
    9.9978   -5.8259    0.0000 C   0  0  0  0  0  0  0  0  0  0  0  0
   10.7164   -6.2330    0.0000 C   0  0  0  0  0  0  0  0  0  0  0  0
    9.9910   -5.0000    0.0000 C   0  0  0  0  0  0  0  0  0  0  0  0
   10.6394   -5.3538    0.0000 C   0  0  0  0  0  0  0  0  0  0  0  0
 10  3  1  0  0  0  0
 14 13  1  0  0  0  0
 20 19  2  0  0  0  0
 19  8  1  0  0  0  0
  2  7  1  0  0  0  0
  6  5  1  0  0  0  0
  5  1  1  0  0  0  0
  1  4  1  0  0  0  0
  4  7  1  0  0  0  0
 17 12  2  0  0  0  0
  3  8  1  0  0  0  0
  3  2  1  0  0  0  0
 12 10  1  0  0  0  0
 14 17  1  0  0  0  0
  8 15  2  0  0  0  0
  1 21  1  0  0  0  0
 12 22  1  0  0  0  0
 10 11  2  0  0  0  0
 21 23  1  0  0  0  0
 15  9  1  0  0  0  0
 23 24  2  0  0  0  0
 11 16  1  0  0  0  0
 23 25  1  0  0  0  0
  9 18  2  0  0  0  0
 25 26  1  0  0  0  0
 16 14  2  0  0  0  0
 26 27  1  0  0  0  0
  2  6  1  0  0  0  0
 26 28  1  0  0  0  0
 18 20  1  0  0  0  0
 26 29  1  0  0  0  0
M  END
> <Molecule Name>
DNDI1434926

> <CDD Number>
CDD-1535411

> <IC50_uM>
0.26 (n=1)

$$$$

SketchEl molfile

 29 31  0  0  0  0  0  0  0  0999 V2000
   10.7392   -5.8321    0.0000 C   0  0  0  0  0  0  0  0  0  0  0  0
   10.7392   -5.0062    0.0000 O   0  0  0  0  0  0  0  0  0  0  0  0
   11.4545   -6.2451    0.0000 O   0  0  0  0  0  0  0  0  0  0  0  0
   12.1669   -5.8259    0.0000 C   0  0  0  0  0  0  0  0  0  0  0  0
   12.8855   -6.2330    0.0000 C   0  0  0  0  0  0  0  0  0  0  0  0
   12.1601   -5.0000    0.0000 C   0  0  0  0  0  0  0  0  0  0  0  0
   12.8085   -5.3538    0.0000 C   0  0  0  0  0  0  0  0  0  0  0  0
   10.0240   -6.2451    0.0000 N   0  0  0  0  0  0  0  0  0  0  0  0
    8.5885   -7.0537    0.0000 C   0  0  0  0  0  0  0  0  0  0  0  0
    9.3004   -7.4742    0.0000 C   0  0  0  0  0  0  0  0  0  0  0  0
    8.5990   -6.2275    0.0000 C   0  0  0  0  0  0  0  0  0  0  0  0
    9.3152   -5.8235    0.0000 C   0  0  0  0  0  0  0  0  0  0  0  0
   10.0228   -7.0686    0.0000 C   0  0  0  0  0  0  0  0  0  0  0  0
    7.8686   -7.4585    0.0000 N   0  0  0  0  0  0  0  0  0  0  0  0
    7.8592   -8.2843    0.0000 C   0  0  0  0  0  0  0  0  0  0  0  0
    8.5760   -8.6946    0.0000 C   0  0  0  0  0  0  0  0  0  0  0  0
    9.2917   -9.9283    0.0000 N   0  0  0  0  0  0  0  0  0  0  0  0
    7.1455   -8.7000    0.0000 C   0  0  0  0  0  0  0  0  0  0  0  0
    6.4294   -8.2904    0.0000 C   0  0  0  0  0  0  0  0  0  0  0  0
    7.1484   -9.5314    0.0000 C   0  0  0  0  0  0  0  0  0  0  0  0
    5.0000   -9.9443    0.0000 F   0  0  0  0  0  0  0  0  0  0  0  0
    5.7156   -9.5319    0.0000 C   0  0  0  0  0  0  0  0  0  0  0  0
    8.5758   -9.5181    0.0000 C   0  0  0  0  0  0  0  0  0  0  0  0
    5.7167   -8.7036    0.0000 C   0  0  0  0  0  0  0  0  0  0  0  0
    6.4312   -9.9452    0.0000 C   0  0  0  0  0  0  0  0  0  0  0  0
   10.0064   -9.5126    0.0000 C   0  0  0  0  0  0  0  0  0  0  0  0
    9.2841   -8.2760    0.0000 N   0  0  0  0  0  0  0  0  0  0  0  0
   10.0006   -8.6824    0.0000 C   0  0  0  0  0  0  0  0  0  0  0  0
    7.8643   -9.9432    0.0000 F   0  0  0  0  0  0  0  0  0  0  0  0
 14 15  1  0  0  0  0
  1  8  1  0  0  0  0
  1  2  2  0  0  0  0
  1  3  1  0  0  0  0
  3  4  1  0  0  0  0
  4  5  1  0  0  0  0
  4  6  1  0  0  0  0
  8 13  1  0  0  0  0
 12 11  1  0  0  0  0
 11  9  1  0  0  0  0
  9 10  1  0  0  0  0
 10 13  1  0  0  0  0
  8 12  1  0  0  0  0
  4  7  1  0  0  0  0
  9 14  1  0  0  0  0
 18 15  1  0  0  0  0
 22 21  1  0  0  0  0
 28 27  2  0  0  0  0
 27 16  1  0  0  0  0
 25 20  2  0  0  0  0
 15 16  1  0  0  0  0
 20 18  1  0  0  0  0
 22 25  1  0  0  0  0
 16 23  2  0  0  0  0
 20 29  1  0  0  0  0
 18 19  2  0  0  0  0
 23 17  1  0  0  0  0
 19 24  1  0  0  0  0
 17 26  2  0  0  0  0
 24 22  2  0  0  0  0
 26 28  1  0  0  0  0
M  END
> <Molecule Name>
DNDI1434927

> <CDD Number>
CDD-1535412

> <IC50_uM>
0.21 (n=1)

$$$$

SketchEl molfile

 23 26  0  0  0  0  0  0  0  0999 V2000
    7.8580   -6.9386    0.0000 C   0  0  0  0  0  0  0  0  0  0  0  0
    7.4445   -5.6671    0.0000 C   0  0  0  0  0  0  0  0  0  0  0  0
    7.1924   -6.4523    0.0000 O   0  0  0  0  0  0  0  0  0  0  0  0
    8.2726   -5.6675    0.0000 C   0  0  0  0  0  0  0  0  0  0  0  0
    8.5229   -6.4524    0.0000 C   0  0  0  0  0  0  0  0  0  0  0  0
    9.3262   -6.6267    0.0000 C   0  0  0  0  0  0  0  0  0  0  0  0
    9.8799   -6.0171    0.0000 C   0  0  0  0  0  0  0  0  0  0  0  0
    9.6249   -5.2304    0.0000 C   0  0  0  0  0  0  0  0  0  0  0  0
    8.8222   -5.0598    0.0000 C   0  0  0  0  0  0  0  0  0  0  0  0
    6.9583   -5.0000    0.0000 O   0  0  0  0  0  0  0  0  0  0  0  0
    8.5745   -7.3487    0.0000 C   0  0  0  0  0  0  0  0  0  0  0  0
    9.2899   -8.5819    0.0000 C   0  0  0  0  0  0  0  0  0  0  0  0
    7.1446   -7.3541    0.0000 C   0  0  0  0  0  0  0  0  0  0  0  0
    6.4288   -6.9447    0.0000 C   0  0  0  0  0  0  0  0  0  0  0  0
    7.1475   -8.1852    0.0000 C   0  0  0  0  0  0  0  0  0  0  0  0
    5.0000   -8.5979    0.0000 Cl  0  0  0  0  0  0  0  0  0  0  0  0
    5.7153   -8.1856    0.0000 C   0  0  0  0  0  0  0  0  0  0  0  0
    8.5743   -8.1719    0.0000 C   0  0  0  0  0  0  0  0  0  0  0  0
    5.7164   -7.3577    0.0000 C   0  0  0  0  0  0  0  0  0  0  0  0
    6.4306   -8.5988    0.0000 C   0  0  0  0  0  0  0  0  0  0  0  0
   10.0043   -8.1664    0.0000 C   0  0  0  0  0  0  0  0  0  0  0  0
    9.2823   -6.9303    0.0000 C   0  0  0  0  0  0  0  0  0  0  0  0
    9.9985   -7.3366    0.0000 N   0  0  0  0  0  0  0  0  0  0  0  0
  4  2  1  0  0  0  0
  5  6  1  0  0  0  0
  2  3  1  0  0  0  0
  6  7  2  0  0  0  0
  3  1  1  0  0  0  0
  7  8  1  0  0  0  0
  1  5  1  0  0  0  0
  8  9  2  0  0  0  0
  9  4  1  0  0  0  0
  2 10  2  0  0  0  0
  4  5  2  0  0  0  0
 13  1  1  0  0  0  0
 17 16  1  0  0  0  0
 23 22  2  0  0  0  0
 22 11  1  0  0  0  0
 20 15  2  0  0  0  0
  1 11  1  0  0  0  0
 15 13  1  0  0  0  0
 17 20  1  0  0  0  0
 11 18  2  0  0  0  0
 13 14  2  0  0  0  0
 14 19  1  0  0  0  0
 12 21  2  0  0  0  0
 19 17  2  0  0  0  0
 21 23  1  0  0  0  0
 18 12  1  0  0  0  0
M  END
> <Molecule Name>
DNDI1434928

> <CDD Number>
CDD-1535413

> <IC50_uM>
0.23 (n=1)

$$$$

SketchEl molfile

 24 26  0  0  0  0  0  0  0  0999 V2000
    7.8654   -7.8937    0.0000 N   0  0  0  0  0  0  0  0  0  0  0  0
    7.8560   -8.7186    0.0000 C   0  0  0  0  0  0  0  0  0  0  0  0
    8.5720   -9.1284    0.0000 C   0  0  0  0  0  0  0  0  0  0  0  0
    9.2869  -10.3607    0.0000 N   0  0  0  0  0  0  0  0  0  0  0  0
    7.1431   -9.1338    0.0000 C   0  0  0  0  0  0  0  0  0  0  0  0
    6.4277   -8.7247    0.0000 C   0  0  0  0  0  0  0  0  0  0  0  0
    7.1460   -9.9643    0.0000 C   0  0  0  0  0  0  0  0  0  0  0  0
    5.0000  -10.3767    0.0000 Cl  0  0  0  0  0  0  0  0  0  0  0  0
    5.7148   -9.9647    0.0000 C   0  0  0  0  0  0  0  0  0  0  0  0
    8.5717   -9.9510    0.0000 C   0  0  0  0  0  0  0  0  0  0  0  0
    5.7159   -9.1374    0.0000 C   0  0  0  0  0  0  0  0  0  0  0  0
    6.4296  -10.3776    0.0000 C   0  0  0  0  0  0  0  0  0  0  0  0
   10.0008   -9.9455    0.0000 C   0  0  0  0  0  0  0  0  0  0  0  0
    9.2793   -8.7103    0.0000 C   0  0  0  0  0  0  0  0  0  0  0  0
    9.9950   -9.1163    0.0000 N   0  0  0  0  0  0  0  0  0  0  0  0
    8.5855   -7.4938    0.0000 C   0  0  0  0  0  0  0  0  0  0  0  0
    8.5968   -6.6725    0.0000 C   0  0  0  0  0  0  0  0  0  0  0  0
    7.8889   -6.2481    0.0000 N   0  0  0  0  0  0  0  0  0  0  0  0
    7.1681   -6.6512    0.0000 C   0  0  0  0  0  0  0  0  0  0  0  0
    7.1550   -7.4787    0.0000 C   0  0  0  0  0  0  0  0  0  0  0  0
    7.9014   -5.4233    0.0000 C   0  0  0  0  0  0  0  0  0  0  0  0
    8.6220   -5.0216    0.0000 C   0  0  0  0  0  0  0  0  0  0  0  0
    7.1933   -5.0000    0.0000 O   0  0  0  0  0  0  0  0  0  0  0  0
    9.3301   -5.4449    0.0000 C   0  0  0  0  0  0  0  0  0  0  0  0
  9 12  1  0  0  0  0
  3 10  2  0  0  0  0
  5  6  2  0  0  0  0
 10  4  1  0  0  0  0
  6 11  1  0  0  0  0
  4 13  2  0  0  0  0
 11  9  2  0  0  0  0
 13 15  1  0  0  0  0
  1 16  1  0  0  0  0
  1  2  1  0  0  0  0
  5  2  1  0  0  0  0
  9  8  1  0  0  0  0
 15 14  2  0  0  0  0
  1 20  1  0  0  0  0
 16 17  1  0  0  0  0
 17 18  1  0  0  0  0
 18 19  1  0  0  0  0
 19 20  1  0  0  0  0
 14  3  1  0  0  0  0
 18 21  1  0  0  0  0
 12  7  2  0  0  0  0
 21 22  1  0  0  0  0
  2  3  1  0  0  0  0
 21 23  2  0  0  0  0
  7  5  1  0  0  0  0
 22 24  1  0  0  0  0
M  END
> <Molecule Name>
DNDI1434929

> <CDD Number>
CDD-1535414

> <IC50_uM>
0.85 (n=1)

$$$$

SketchEl molfile

 28 31  0  0  0  0  0  0  0  0999 V2000
    7.8655   -9.0954    0.0000 N   0  0  0  0  0  0  0  0  0  0  0  0
    7.8561   -9.9203    0.0000 C   0  0  0  0  0  0  0  0  0  0  0  0
    8.5721  -10.3301    0.0000 C   0  0  0  0  0  0  0  0  0  0  0  0
    9.2871  -11.5625    0.0000 N   0  0  0  0  0  0  0  0  0  0  0  0
    7.1432  -10.3355    0.0000 C   0  0  0  0  0  0  0  0  0  0  0  0
    6.4278   -9.9264    0.0000 C   0  0  0  0  0  0  0  0  0  0  0  0
    7.1461  -11.1660    0.0000 C   0  0  0  0  0  0  0  0  0  0  0  0
    5.0000  -11.5785    0.0000 Cl  0  0  0  0  0  0  0  0  0  0  0  0
    5.7148  -11.1665    0.0000 C   0  0  0  0  0  0  0  0  0  0  0  0
    8.5719  -11.1528    0.0000 C   0  0  0  0  0  0  0  0  0  0  0  0
    5.7160  -10.3392    0.0000 C   0  0  0  0  0  0  0  0  0  0  0  0
    6.4296  -11.5794    0.0000 C   0  0  0  0  0  0  0  0  0  0  0  0
   10.0010  -11.1473    0.0000 C   0  0  0  0  0  0  0  0  0  0  0  0
    9.2794   -9.9120    0.0000 C   0  0  0  0  0  0  0  0  0  0  0  0
    9.9952  -10.3180    0.0000 N   0  0  0  0  0  0  0  0  0  0  0  0
    8.5857   -8.6955    0.0000 C   0  0  0  0  0  0  0  0  0  0  0  0
    8.5969   -7.8742    0.0000 C   0  0  0  0  0  0  0  0  0  0  0  0
    7.8891   -7.4497    0.0000 N   0  0  0  0  0  0  0  0  0  0  0  0
    7.1682   -7.8529    0.0000 C   0  0  0  0  0  0  0  0  0  0  0  0
    7.1551   -8.6804    0.0000 C   0  0  0  0  0  0  0  0  0  0  0  0
    7.9016   -6.6248    0.0000 C   0  0  0  0  0  0  0  0  0  0  0  0
    8.6222   -6.2232    0.0000 C   0  0  0  0  0  0  0  0  0  0  0  0
    7.1934   -6.2016    0.0000 O   0  0  0  0  0  0  0  0  0  0  0  0
    9.3292   -6.6488    0.0000 C   0  0  0  0  0  0  0  0  0  0  0  0
   10.0476   -6.2507    0.0000 C   0  0  0  0  0  0  0  0  0  0  0  0
   10.0643   -5.4255    0.0000 C   0  0  0  0  0  0  0  0  0  0  0  0
    9.3564   -5.0000    0.0000 C   0  0  0  0  0  0  0  0  0  0  0  0
    8.6317   -5.3998    0.0000 C   0  0  0  0  0  0  0  0  0  0  0  0
  6 11  1  0  0  0  0
  4 13  2  0  0  0  0
 11  9  2  0  0  0  0
 13 15  1  0  0  0  0
  1 16  1  0  0  0  0
  1  2  1  0  0  0  0
  5  2  1  0  0  0  0
  9  8  1  0  0  0  0
 15 14  2  0  0  0  0
  1 20  1  0  0  0  0
 16 17  1  0  0  0  0
 17 18  1  0  0  0  0
 18 19  1  0  0  0  0
 19 20  1  0  0  0  0
 14  3  1  0  0  0  0
 18 21  1  0  0  0  0
 12  7  2  0  0  0  0
 21 22  1  0  0  0  0
  2  3  1  0  0  0  0
 21 23  2  0  0  0  0
  7  5  1  0  0  0  0
 22 24  1  0  0  0  0
  9 12  1  0  0  0  0
  3 10  2  0  0  0  0
  5  6  2  0  0  0  0
 10  4  1  0  0  0  0
 22 28  1  0  0  0  0
 24 25  1  0  0  0  0
 25 26  1  0  0  0  0
 26 27  1  0  0  0  0
 27 28  1  0  0  0  0
M  END
> <Molecule Name>
DNDI1434930

> <CDD Number>
CDD-1535415

> <IC50_uM>
0.32 (n=1)

$$$$

SketchEl molfile

 25 28  0  0  0  0  0  0  0  0999 V2000
    7.8654   -8.5810    0.0000 N   0  0  0  0  0  0  0  0  0  0  0  0
    7.8560   -9.4060    0.0000 C   0  0  0  0  0  0  0  0  0  0  0  0
    8.5721   -9.8158    0.0000 C   0  0  0  0  0  0  0  0  0  0  0  0
    9.2870  -11.0481    0.0000 N   0  0  0  0  0  0  0  0  0  0  0  0
    7.1431   -9.8212    0.0000 C   0  0  0  0  0  0  0  0  0  0  0  0
    6.4278   -9.4120    0.0000 C   0  0  0  0  0  0  0  0  0  0  0  0
    7.1460  -10.6517    0.0000 C   0  0  0  0  0  0  0  0  0  0  0  0
    5.0000  -11.0641    0.0000 Cl  0  0  0  0  0  0  0  0  0  0  0  0
    5.7148  -10.6521    0.0000 C   0  0  0  0  0  0  0  0  0  0  0  0
    8.5718  -10.6384    0.0000 C   0  0  0  0  0  0  0  0  0  0  0  0
    5.7159   -9.8248    0.0000 C   0  0  0  0  0  0  0  0  0  0  0  0
    6.4296  -11.0650    0.0000 C   0  0  0  0  0  0  0  0  0  0  0  0
   10.0008  -10.6329    0.0000 C   0  0  0  0  0  0  0  0  0  0  0  0
    9.2793   -9.3977    0.0000 C   0  0  0  0  0  0  0  0  0  0  0  0
    9.9951   -9.8036    0.0000 N   0  0  0  0  0  0  0  0  0  0  0  0
    8.5856   -8.1812    0.0000 C   0  0  0  0  0  0  0  0  0  0  0  0
    8.5969   -7.3599    0.0000 C   0  0  0  0  0  0  0  0  0  0  0  0
    7.8890   -6.9355    0.0000 N   0  0  0  0  0  0  0  0  0  0  0  0
    7.1681   -7.3386    0.0000 C   0  0  0  0  0  0  0  0  0  0  0  0
    7.1551   -8.1661    0.0000 C   0  0  0  0  0  0  0  0  0  0  0  0
    7.9015   -6.1106    0.0000 C   0  0  0  0  0  0  0  0  0  0  0  0
    7.1933   -5.6873    0.0000 O   0  0  0  0  0  0  0  0  0  0  0  0
    8.6221   -5.7089    0.0000 C   0  0  0  0  0  0  0  0  0  0  0  0
    9.4463   -5.7206    0.0000 C   0  0  0  0  0  0  0  0  0  0  0  0
    9.0447   -5.0000    0.0000 C   0  0  0  0  0  0  0  0  0  0  0  0
 11  9  2  0  0  0  0
 13 15  1  0  0  0  0
  1 16  1  0  0  0  0
  1  2  1  0  0  0  0
  5  2  1  0  0  0  0
  9  8  1  0  0  0  0
 15 14  2  0  0  0  0
  1 20  1  0  0  0  0
 16 17  1  0  0  0  0
 17 18  1  0  0  0  0
 18 19  1  0  0  0  0
 19 20  1  0  0  0  0
 14  3  1  0  0  0  0
 18 21  1  0  0  0  0
 12  7  2  0  0  0  0
  2  3  1  0  0  0  0
 21 22  2  0  0  0  0
  7  5  1  0  0  0  0
  9 12  1  0  0  0  0
  3 10  2  0  0  0  0
  5  6  2  0  0  0  0
 10  4  1  0  0  0  0
 21 23  1  0  0  0  0
 24 23  1  0  0  0  0
 25 24  1  0  0  0  0
 23 25  1  0  0  0  0
  6 11  1  0  0  0  0
  4 13  2  0  0  0  0
M  END
> <Molecule Name>
DNDI1434931

> <CDD Number>
CDD-1535416

> <IC50_uM>
0.5 (n=1)

$$$$

SketchEl molfile

 29 32  0  0  0  0  0  0  0  0999 V2000
    7.8652   -9.0950    0.0000 N   0  0  0  0  0  0  0  0  0  0  0  0
    7.8559   -9.9199    0.0000 C   0  0  0  0  0  0  0  0  0  0  0  0
    8.5718  -10.3296    0.0000 C   0  0  0  0  0  0  0  0  0  0  0  0
    9.2867  -11.5619    0.0000 N   0  0  0  0  0  0  0  0  0  0  0  0
    7.1430  -10.3350    0.0000 C   0  0  0  0  0  0  0  0  0  0  0  0
    6.4277   -9.9259    0.0000 C   0  0  0  0  0  0  0  0  0  0  0  0
    7.1459  -11.1655    0.0000 C   0  0  0  0  0  0  0  0  0  0  0  0
    5.0000  -11.5779    0.0000 Cl  0  0  0  0  0  0  0  0  0  0  0  0
    5.7147  -11.1660    0.0000 C   0  0  0  0  0  0  0  0  0  0  0  0
    8.5716  -11.1522    0.0000 C   0  0  0  0  0  0  0  0  0  0  0  0
    5.7159  -10.3387    0.0000 C   0  0  0  0  0  0  0  0  0  0  0  0
    6.4295  -11.5788    0.0000 C   0  0  0  0  0  0  0  0  0  0  0  0
   10.0005  -11.1467    0.0000 C   0  0  0  0  0  0  0  0  0  0  0  0
    9.2791   -9.9116    0.0000 C   0  0  0  0  0  0  0  0  0  0  0  0
    9.9948  -10.3175    0.0000 N   0  0  0  0  0  0  0  0  0  0  0  0
    8.5853   -8.6952    0.0000 C   0  0  0  0  0  0  0  0  0  0  0  0
    8.5966   -7.8739    0.0000 C   0  0  0  0  0  0  0  0  0  0  0  0
    7.8888   -7.4495    0.0000 N   0  0  0  0  0  0  0  0  0  0  0  0
    7.1680   -7.8526    0.0000 C   0  0  0  0  0  0  0  0  0  0  0  0
    7.1549   -8.6801    0.0000 C   0  0  0  0  0  0  0  0  0  0  0  0
    7.9013   -6.6247    0.0000 S   0  0  0  0  0  0  0  0  0  0  0  0
    7.1932   -6.2015    0.0000 O   0  0  0  0  0  0  0  0  0  0  0  0
    8.6219   -6.2231    0.0000 C   0  0  0  0  0  0  0  0  0  0  0  0
    9.3288   -6.6487    0.0000 C   0  0  0  0  0  0  0  0  0  0  0  0
   10.0471   -6.2505    0.0000 C   0  0  0  0  0  0  0  0  0  0  0  0
   10.0639   -5.4254    0.0000 C   0  0  0  0  0  0  0  0  0  0  0  0
    9.3560   -5.0000    0.0000 C   0  0  0  0  0  0  0  0  0  0  0  0
    8.6314   -5.3997    0.0000 C   0  0  0  0  0  0  0  0  0  0  0  0
    7.8963   -5.7974    0.0000 O   0  0  0  0  0  0  0  0  0  0  0  0
  9  8  1  0  0  0  0
 15 14  2  0  0  0  0
  1 20  1  0  0  0  0
 16 17  1  0  0  0  0
 17 18  1  0  0  0  0
 18 19  1  0  0  0  0
 19 20  1  0  0  0  0
 14  3  1  0  0  0  0
 18 21  1  0  0  0  0
 12  7  2  0  0  0  0
  2  3  1  0  0  0  0
 21 22  2  0  0  0  0
  7  5  1  0  0  0  0
  9 12  1  0  0  0  0
  3 10  2  0  0  0  0
  5  6  2  0  0  0  0
 10  4  1  0  0  0  0
 21 23  1  0  0  0  0
  6 11  1  0  0  0  0
  4 13  2  0  0  0  0
 23 24  1  0  0  0  0
 11  9  2  0  0  0  0
 13 15  1  0  0  0  0
  1 16  1  0  0  0  0
  1  2  1  0  0  0  0
 23 28  1  0  0  0  0
 24 25  1  0  0  0  0
 25 26  1  0  0  0  0
 26 27  1  0  0  0  0
 27 28  1  0  0  0  0
  5  2  1  0  0  0  0
 21 29  2  0  0  0  0
M  END
> <Molecule Name>
DNDI1434932

> <CDD Number>
CDD-1535417

> <IC50_uM>
0.065 (n=1)

$$$$

SketchEl molfile

 24 26  0  0  0  0  0  0  0  0999 V2000
    7.8650   -8.2974    0.0000 N   0  0  0  0  0  0  0  0  0  0  0  0
    7.8557   -9.1222    0.0000 C   0  0  0  0  0  0  0  0  0  0  0  0
    8.5716   -9.5319    0.0000 C   0  0  0  0  0  0  0  0  0  0  0  0
    9.2864  -10.7641    0.0000 N   0  0  0  0  0  0  0  0  0  0  0  0
    7.1429   -9.5373    0.0000 C   0  0  0  0  0  0  0  0  0  0  0  0
    6.4276   -9.1282    0.0000 C   0  0  0  0  0  0  0  0  0  0  0  0
    7.1457  -10.3677    0.0000 C   0  0  0  0  0  0  0  0  0  0  0  0
    5.0000  -10.7801    0.0000 Cl  0  0  0  0  0  0  0  0  0  0  0  0
    5.7147  -10.3682    0.0000 C   0  0  0  0  0  0  0  0  0  0  0  0
    8.5713  -10.3545    0.0000 C   0  0  0  0  0  0  0  0  0  0  0  0
    5.7158   -9.5409    0.0000 C   0  0  0  0  0  0  0  0  0  0  0  0
    6.4294  -10.7810    0.0000 C   0  0  0  0  0  0  0  0  0  0  0  0
   10.0002  -10.3489    0.0000 C   0  0  0  0  0  0  0  0  0  0  0  0
    9.2788   -9.1139    0.0000 C   0  0  0  0  0  0  0  0  0  0  0  0
    9.9944   -9.5198    0.0000 N   0  0  0  0  0  0  0  0  0  0  0  0
    8.5851   -7.8975    0.0000 C   0  0  0  0  0  0  0  0  0  0  0  0
    8.5964   -7.0763    0.0000 C   0  0  0  0  0  0  0  0  0  0  0  0
    7.8886   -6.6520    0.0000 N   0  0  0  0  0  0  0  0  0  0  0  0
    7.1678   -7.0550    0.0000 C   0  0  0  0  0  0  0  0  0  0  0  0
    7.1548   -7.8824    0.0000 C   0  0  0  0  0  0  0  0  0  0  0  0
    7.9011   -5.8272    0.0000 S   0  0  0  0  0  0  0  0  0  0  0  0
    7.1931   -5.4040    0.0000 O   0  0  0  0  0  0  0  0  0  0  0  0
    8.6216   -5.4256    0.0000 C   0  0  0  0  0  0  0  0  0  0  0  0
    7.8961   -5.0000    0.0000 O   0  0  0  0  0  0  0  0  0  0  0  0
  9  8  1  0  0  0  0
 15 14  2  0  0  0  0
  1 20  1  0  0  0  0
 16 17  1  0  0  0  0
 17 18  1  0  0  0  0
 18 19  1  0  0  0  0
 19 20  1  0  0  0  0
 14  3  1  0  0  0  0
 18 21  1  0  0  0  0
 12  7  2  0  0  0  0
  2  3  1  0  0  0  0
 21 22  2  0  0  0  0
  7  5  1  0  0  0  0
  9 12  1  0  0  0  0
  3 10  2  0  0  0  0
  5  6  2  0  0  0  0
 10  4  1  0  0  0  0
 21 23  1  0  0  0  0
  6 11  1  0  0  0  0
  4 13  2  0  0  0  0
 11  9  2  0  0  0  0
 13 15  1  0  0  0  0
  1 16  1  0  0  0  0
  1  2  1  0  0  0  0
  5  2  1  0  0  0  0
 21 24  2  0  0  0  0
M  END
> <Molecule Name>
DNDI1434933

> <CDD Number>
CDD-1535418

> <IC50_uM>
0.88 (n=1)

$$$$

SketchEl molfile

 30 33  0  0  0  0  0  0  0  0999 V2000
    7.8655   -8.2979    0.0000 N   0  0  0  0  0  0  0  0  0  0  0  0
    7.8561   -9.1228    0.0000 C   0  0  0  0  0  0  0  0  0  0  0  0
    8.5721   -9.5326    0.0000 C   0  0  0  0  0  0  0  0  0  0  0  0
    9.2870  -10.7650    0.0000 N   0  0  0  0  0  0  0  0  0  0  0  0
    7.1432   -9.5380    0.0000 C   0  0  0  0  0  0  0  0  0  0  0  0
    6.4278   -9.1289    0.0000 C   0  0  0  0  0  0  0  0  0  0  0  0
    7.1460  -10.3685    0.0000 C   0  0  0  0  0  0  0  0  0  0  0  0
    5.0000  -10.7810    0.0000 Cl  0  0  0  0  0  0  0  0  0  0  0  0
    5.7148  -10.3690    0.0000 C   0  0  0  0  0  0  0  0  0  0  0  0
    8.5719  -10.3553    0.0000 C   0  0  0  0  0  0  0  0  0  0  0  0
    5.7160   -9.5417    0.0000 C   0  0  0  0  0  0  0  0  0  0  0  0
    6.4296  -10.7819    0.0000 C   0  0  0  0  0  0  0  0  0  0  0  0
   10.0009  -10.3498    0.0000 C   0  0  0  0  0  0  0  0  0  0  0  0
    9.2794   -9.1145    0.0000 C   0  0  0  0  0  0  0  0  0  0  0  0
    9.9952   -9.5205    0.0000 N   0  0  0  0  0  0  0  0  0  0  0  0
    8.5856   -7.8980    0.0000 C   0  0  0  0  0  0  0  0  0  0  0  0
    8.5969   -7.0767    0.0000 C   0  0  0  0  0  0  0  0  0  0  0  0
    7.8891   -6.6523    0.0000 N   0  0  0  0  0  0  0  0  0  0  0  0
    7.1681   -7.0554    0.0000 C   0  0  0  0  0  0  0  0  0  0  0  0
    7.1551   -7.8829    0.0000 C   0  0  0  0  0  0  0  0  0  0  0  0
    7.9015   -5.8274    0.0000 S   0  0  0  0  0  0  0  0  0  0  0  0
    7.1934   -5.4041    0.0000 O   0  0  0  0  0  0  0  0  0  0  0  0
    8.6222   -5.4257    0.0000 C   0  0  0  0  0  0  0  0  0  0  0  0
    7.8965   -5.0000    0.0000 O   0  0  0  0  0  0  0  0  0  0  0  0
    9.3303   -5.8490    0.0000 C   0  0  0  0  0  0  0  0  0  0  0  0
    9.3147   -6.6718    0.0000 C   0  0  0  0  0  0  0  0  0  0  0  0
   10.0220   -7.0950    0.0000 C   0  0  0  0  0  0  0  0  0  0  0  0
   10.7436   -6.6933    0.0000 C   0  0  0  0  0  0  0  0  0  0  0  0
   10.7535   -5.8641    0.0000 C   0  0  0  0  0  0  0  0  0  0  0  0
   10.0455   -5.4446    0.0000 C   0  0  0  0  0  0  0  0  0  0  0  0
 18 19  1  0  0  0  0
 19 20  1  0  0  0  0
 14  3  1  0  0  0  0
 18 21  1  0  0  0  0
 12  7  2  0  0  0  0
  2  3  1  0  0  0  0
 21 22  2  0  0  0  0
  7  5  1  0  0  0  0
  9 12  1  0  0  0  0
  3 10  2  0  0  0  0
  5  6  2  0  0  0  0
 10  4  1  0  0  0  0
 21 23  1  0  0  0  0
  6 11  1  0  0  0  0
  4 13  2  0  0  0  0
 11  9  2  0  0  0  0
 13 15  1  0  0  0  0
  1 16  1  0  0  0  0
  1  2  1  0  0  0  0
  5  2  1  0  0  0  0
 21 24  2  0  0  0  0
 23 25  1  0  0  0  0
  9  8  1  0  0  0  0
 25 26  2  0  0  0  0
 15 14  2  0  0  0  0
 26 27  1  0  0  0  0
  1 20  1  0  0  0  0
 27 28  2  0  0  0  0
 16 17  1  0  0  0  0
 28 29  1  0  0  0  0
 17 18  1  0  0  0  0
 29 30  2  0  0  0  0
 30 25  1  0  0  0  0
M  END
> <Molecule Name>
DNDI1434934

> <CDD Number>
CDD-1535419

> <IC50_uM>
0.22 (n=1)

$$$$

SketchEl molfile

 30 33  0  0  0  0  0  0  0  0999 V2000
    7.8654   -9.0956    0.0000 N   0  0  0  0  0  0  0  0  0  0  0  0
    7.8560   -9.9205    0.0000 C   0  0  0  0  0  0  0  0  0  0  0  0
    8.5720  -10.3303    0.0000 C   0  0  0  0  0  0  0  0  0  0  0  0
    9.2869  -11.5626    0.0000 N   0  0  0  0  0  0  0  0  0  0  0  0
    7.1431  -10.3357    0.0000 C   0  0  0  0  0  0  0  0  0  0  0  0
    6.4277   -9.9266    0.0000 C   0  0  0  0  0  0  0  0  0  0  0  0
    7.1460  -11.1662    0.0000 C   0  0  0  0  0  0  0  0  0  0  0  0
    5.0000  -11.5786    0.0000 Cl  0  0  0  0  0  0  0  0  0  0  0  0
    5.7148  -11.1666    0.0000 C   0  0  0  0  0  0  0  0  0  0  0  0
    8.5717  -11.1529    0.0000 C   0  0  0  0  0  0  0  0  0  0  0  0
    5.7159  -10.3393    0.0000 C   0  0  0  0  0  0  0  0  0  0  0  0
    6.4296  -11.5795    0.0000 C   0  0  0  0  0  0  0  0  0  0  0  0
   10.0008  -11.1474    0.0000 C   0  0  0  0  0  0  0  0  0  0  0  0
    9.2793   -9.9122    0.0000 C   0  0  0  0  0  0  0  0  0  0  0  0
    9.9950  -10.3182    0.0000 N   0  0  0  0  0  0  0  0  0  0  0  0
    8.5855   -8.6957    0.0000 C   0  0  0  0  0  0  0  0  0  0  0  0
    8.5968   -7.8744    0.0000 C   0  0  0  0  0  0  0  0  0  0  0  0
    7.8889   -7.4500    0.0000 N   0  0  0  0  0  0  0  0  0  0  0  0
    7.1681   -7.8531    0.0000 C   0  0  0  0  0  0  0  0  0  0  0  0
    7.1550   -8.6806    0.0000 C   0  0  0  0  0  0  0  0  0  0  0  0
    7.9014   -6.6252    0.0000 S   0  0  0  0  0  0  0  0  0  0  0  0
    7.1933   -6.2019    0.0000 O   0  0  0  0  0  0  0  0  0  0  0  0
    8.6220   -6.2235    0.0000 C   0  0  0  0  0  0  0  0  0  0  0  0
    7.8964   -5.7979    0.0000 O   0  0  0  0  0  0  0  0  0  0  0  0
    9.3287   -6.6499    0.0000 C   0  0  0  0  0  0  0  0  0  0  0  0
   10.0488   -6.2489    0.0000 C   0  0  0  0  0  0  0  0  0  0  0  0
   10.0618   -5.4232    0.0000 C   0  0  0  0  0  0  0  0  0  0  0  0
    9.3486   -5.0000    0.0000 C   0  0  0  0  0  0  0  0  0  0  0  0
    8.6314   -5.4034    0.0000 C   0  0  0  0  0  0  0  0  0  0  0  0
   10.7818   -5.0206    0.0000 Cl  0  0  0  0  0  0  0  0  0  0  0  0
  2  3  1  0  0  0  0
 21 22  2  0  0  0  0
  7  5  1  0  0  0  0
  9 12  1  0  0  0  0
  3 10  2  0  0  0  0
  5  6  2  0  0  0  0
 10  4  1  0  0  0  0
 21 23  1  0  0  0  0
  6 11  1  0  0  0  0
  4 13  2  0  0  0  0
 11  9  2  0  0  0  0
 13 15  1  0  0  0  0
  1 16  1  0  0  0  0
  1  2  1  0  0  0  0
  5  2  1  0  0  0  0
 21 24  2  0  0  0  0
  9  8  1  0  0  0  0
 15 14  2  0  0  0  0
  1 20  1  0  0  0  0
 16 17  1  0  0  0  0
 17 18  1  0  0  0  0
 23 25  2  0  0  0  0
 18 19  1  0  0  0  0
 25 26  1  0  0  0  0
 19 20  1  0  0  0  0
 26 27  2  0  0  0  0
 14  3  1  0  0  0  0
 27 28  1  0  0  0  0
 18 21  1  0  0  0  0
 28 29  2  0  0  0  0
 29 23  1  0  0  0  0
 12  7  2  0  0  0  0
 27 30  1  0  0  0  0
M  END
> <Molecule Name>
DNDI1434935

> <CDD Number>
CDD-1535420

> <IC50_uM>
0.13 (n=1)

$$$$

SketchEl molfile

 33 36  0  0  0  0  0  0  0  0999 V2000
    7.8654   -9.0956    0.0000 N   0  0  0  0  0  0  0  0  0  0  0  0
    7.8560   -9.9205    0.0000 C   0  0  0  0  0  0  0  0  0  0  0  0
    8.5720  -10.3303    0.0000 C   0  0  0  0  0  0  0  0  0  0  0  0
    9.2869  -11.5626    0.0000 N   0  0  0  0  0  0  0  0  0  0  0  0
    7.1431  -10.3357    0.0000 C   0  0  0  0  0  0  0  0  0  0  0  0
    6.4278   -9.9266    0.0000 C   0  0  0  0  0  0  0  0  0  0  0  0
    7.1460  -11.1662    0.0000 C   0  0  0  0  0  0  0  0  0  0  0  0
    5.0000  -11.5786    0.0000 Cl  0  0  0  0  0  0  0  0  0  0  0  0
    5.7148  -11.1667    0.0000 C   0  0  0  0  0  0  0  0  0  0  0  0
    8.5717  -11.1529    0.0000 C   0  0  0  0  0  0  0  0  0  0  0  0
    5.7159  -10.3393    0.0000 C   0  0  0  0  0  0  0  0  0  0  0  0
    6.4296  -11.5795    0.0000 C   0  0  0  0  0  0  0  0  0  0  0  0
   10.0008  -11.1474    0.0000 C   0  0  0  0  0  0  0  0  0  0  0  0
    9.2793   -9.9122    0.0000 C   0  0  0  0  0  0  0  0  0  0  0  0
    9.9950  -10.3182    0.0000 N   0  0  0  0  0  0  0  0  0  0  0  0
    8.5855   -8.6957    0.0000 C   0  0  0  0  0  0  0  0  0  0  0  0
    8.5968   -7.8744    0.0000 C   0  0  0  0  0  0  0  0  0  0  0  0
    7.8890   -7.4500    0.0000 N   0  0  0  0  0  0  0  0  0  0  0  0
    7.1681   -7.8531    0.0000 C   0  0  0  0  0  0  0  0  0  0  0  0
    7.1550   -8.6806    0.0000 C   0  0  0  0  0  0  0  0  0  0  0  0
    7.9014   -6.6252    0.0000 S   0  0  0  0  0  0  0  0  0  0  0  0
    7.1933   -6.2019    0.0000 O   0  0  0  0  0  0  0  0  0  0  0  0
    8.6220   -6.2235    0.0000 C   0  0  0  0  0  0  0  0  0  0  0  0
    7.8964   -5.7979    0.0000 O   0  0  0  0  0  0  0  0  0  0  0  0
    9.3288   -6.6499    0.0000 C   0  0  0  0  0  0  0  0  0  0  0  0
   10.0489   -6.2489    0.0000 C   0  0  0  0  0  0  0  0  0  0  0  0
   10.0618   -5.4232    0.0000 C   0  0  0  0  0  0  0  0  0  0  0  0
    9.3486   -5.0000    0.0000 C   0  0  0  0  0  0  0  0  0  0  0  0
    8.6315   -5.4034    0.0000 C   0  0  0  0  0  0  0  0  0  0  0  0
   10.7819   -5.0206    0.0000 C   0  0  0  0  0  0  0  0  0  0  0  0
   11.4906   -5.4429    0.0000 F   0  0  0  0  0  0  0  0  0  0  0  0
   10.7932   -4.1957    0.0000 F   0  0  0  0  0  0  0  0  0  0  0  0
   10.9844   -5.8203    0.0000 F   0  0  0  0  0  0  0  0  0  0  0  0
 27 30  1  0  0  0  0
 30 31  1  0  0  0  0
 30 32  1  0  0  0  0
 30 33  1  0  0  0  0
 10  4  1  0  0  0  0
 21 23  1  0  0  0  0
  6 11  1  0  0  0  0
  4 13  2  0  0  0  0
 11  9  2  0  0  0  0
 13 15  1  0  0  0  0
  1 16  1  0  0  0  0
  1  2  1  0  0  0  0
  5  2  1  0  0  0  0
 21 24  2  0  0  0  0
  9  8  1  0  0  0  0
 15 14  2  0  0  0  0
  1 20  1  0  0  0  0
 16 17  1  0  0  0  0
 17 18  1  0  0  0  0
 23 25  2  0  0  0  0
 18 19  1  0  0  0  0
 25 26  1  0  0  0  0
 19 20  1  0  0  0  0
 26 27  2  0  0  0  0
 14  3  1  0  0  0  0
 27 28  1  0  0  0  0
 18 21  1  0  0  0  0
 28 29  2  0  0  0  0
 29 23  1  0  0  0  0
 12  7  2  0  0  0  0
  2  3  1  0  0  0  0
 21 22  2  0  0  0  0
  7  5  1  0  0  0  0
  9 12  1  0  0  0  0
  3 10  2  0  0  0  0
  5  6  2  0  0  0  0
M  END
> <Molecule Name>
DNDI1434936

> <CDD Number>
CDD-1535421

> <IC50_uM>
0.29 (n=1)

$$$$

SketchEl molfile

 34 37  0  0  0  0  0  0  0  0999 V2000
    7.8522   -9.1018    0.0000 N   0  0  0  0  0  0  0  0  0  0  0  0
    7.8536   -7.4604    0.0000 C   0  0  0  0  0  0  0  0  0  0  0  0
    7.1401   -7.8722    0.0000 C   0  0  0  0  0  0  0  0  0  0  0  0
    8.5693   -7.8741    0.0000 C   0  0  0  0  0  0  0  0  0  0  0  0
    8.5692   -8.6933    0.0000 C   0  0  0  0  0  0  0  0  0  0  0  0
    7.1383   -8.6976    0.0000 C   0  0  0  0  0  0  0  0  0  0  0  0
    7.8549   -6.6377    0.0000 N   0  0  0  0  0  0  0  0  0  0  0  0
    8.5722   -6.2274    0.0000 S   0  0  0  0  0  0  0  0  0  0  0  0
    8.9766   -5.5252    0.0000 O   0  0  0  0  0  0  0  0  0  0  0  0
    9.2841   -6.6399    0.0000 C   0  0  0  0  0  0  0  0  0  0  0  0
    8.0105   -5.5520    0.0000 O   0  0  0  0  0  0  0  0  0  0  0  0
   10.0015   -6.2297    0.0000 C   0  0  0  0  0  0  0  0  0  0  0  0
   10.7100   -6.6456    0.0000 C   0  0  0  0  0  0  0  0  0  0  0  0
   11.4269   -6.2360    0.0000 C   0  0  0  0  0  0  0  0  0  0  0  0
   11.4287   -5.4124    0.0000 C   0  0  0  0  0  0  0  0  0  0  0  0
   10.7076   -5.0000    0.0000 C   0  0  0  0  0  0  0  0  0  0  0  0
    9.9978   -5.4119    0.0000 C   0  0  0  0  0  0  0  0  0  0  0  0
    7.8525   -9.9236    0.0000 C   0  0  0  0  0  0  0  0  0  0  0  0
    8.5708  -10.3323    0.0000 C   0  0  0  0  0  0  0  0  0  0  0  0
    9.2838  -11.5613    0.0000 N   0  0  0  0  0  0  0  0  0  0  0  0
    7.1416  -10.3377    0.0000 C   0  0  0  0  0  0  0  0  0  0  0  0
    6.4281   -9.9296    0.0000 C   0  0  0  0  0  0  0  0  0  0  0  0
    7.1444  -11.1659    0.0000 C   0  0  0  0  0  0  0  0  0  0  0  0
    5.7129  -11.1664    0.0000 C   0  0  0  0  0  0  0  0  0  0  0  0
    8.5705  -11.1527    0.0000 C   0  0  0  0  0  0  0  0  0  0  0  0
    5.7140  -10.3413    0.0000 C   0  0  0  0  0  0  0  0  0  0  0  0
    6.4299  -11.5782    0.0000 C   0  0  0  0  0  0  0  0  0  0  0  0
    9.9999  -11.1472    0.0000 C   0  0  0  0  0  0  0  0  0  0  0  0
    9.2762   -9.9153    0.0000 N   0  0  0  0  0  0  0  0  0  0  0  0
    9.9941  -10.3202    0.0000 C   0  0  0  0  0  0  0  0  0  0  0  0
    4.9958  -11.5772    0.0000 C   0  0  0  0  0  0  0  0  0  0  0  0
    4.2836  -11.1653    0.0000 F   0  0  0  0  0  0  0  0  0  0  0  0
    4.9952  -12.4000    0.0000 F   0  0  0  0  0  0  0  0  0  0  0  0
    4.7835  -10.7823    0.0000 F   0  0  0  0  0  0  0  0  0  0  0  0
 24 31  1  0  0  0  0
 31 32  1  0  0  0  0
 31 33  1  0  0  0  0
 31 34  1  0  0  0  0
  8  9  2  0  0  0  0
  4  2  1  0  0  0  0
  8 10  1  0  0  0  0
  2  3  1  0  0  0  0
  8 11  2  0  0  0  0
  3  6  1  0  0  0  0
 10 12  1  0  0  0  0
  1  5  1  0  0  0  0
 12 13  2  0  0  0  0
 13 14  1  0  0  0  0
  2  7  1  0  0  0  0
 21 18  1  0  0  0  0
 30 29  2  0  0  0  0
 29 19  1  0  0  0  0
 27 23  2  0  0  0  0
 18 19  1  0  0  0  0
 23 21  1  0  0  0  0
 24 27  1  0  0  0  0
 19 25  2  0  0  0  0
 21 22  2  0  0  0  0
 25 20  1  0  0  0  0
 22 26  1  0  0  0  0
 20 28  2  0  0  0  0
 26 24  2  0  0  0  0
 28 30  1  0  0  0  0
 18  1  1  0  0  0  0
 14 15  2  0  0  0  0
  1  6  1  0  0  0  0
 15 16  1  0  0  0  0
  7  8  1  0  0  0  0
 16 17  2  0  0  0  0
 17 12  1  0  0  0  0
  5  4  1  0  0  0  0
M  END
> <Molecule Name>
DNDI1434937

> <CDD Number>
CDD-1535422

> <IC50_uM>
0.31 (n=1)

$$$$

SketchEl molfile

 34 37  0  0  0  0  0  0  0  0999 V2000
    7.8518   -8.5814    0.0000 N   0  0  0  0  0  0  0  0  0  0  0  0
    7.8532   -6.9379    0.0000 C   0  0  0  0  0  0  0  0  0  0  0  0
    7.1388   -7.3502    0.0000 C   0  0  0  0  0  0  0  0  0  0  0  0
    8.5657   -7.3521    0.0000 C   0  0  0  0  0  0  0  0  0  0  0  0
    8.5656   -8.1724    0.0000 C   0  0  0  0  0  0  0  0  0  0  0  0
    7.1369   -8.1766    0.0000 C   0  0  0  0  0  0  0  0  0  0  0  0
    7.8545   -6.1140    0.0000 N   0  0  0  0  0  0  0  0  0  0  0  0
    8.5686   -5.7032    0.0000 S   0  0  0  0  0  0  0  0  0  0  0  0
    8.9736   -5.0000    0.0000 O   0  0  0  0  0  0  0  0  0  0  0  0
    9.2815   -6.1163    0.0000 C   0  0  0  0  0  0  0  0  0  0  0  0
    8.0062   -5.0269    0.0000 O   0  0  0  0  0  0  0  0  0  0  0  0
    7.8522   -9.4043    0.0000 C   0  0  0  0  0  0  0  0  0  0  0  0
    8.5672   -9.8135    0.0000 C   0  0  0  0  0  0  0  0  0  0  0  0
    9.2811  -11.0442    0.0000 N   0  0  0  0  0  0  0  0  0  0  0  0
    7.1402   -9.8189    0.0000 C   0  0  0  0  0  0  0  0  0  0  0  0
    6.4258   -9.4104    0.0000 C   0  0  0  0  0  0  0  0  0  0  0  0
    7.1431  -10.6483    0.0000 C   0  0  0  0  0  0  0  0  0  0  0  0
    5.7138  -10.6488    0.0000 C   0  0  0  0  0  0  0  0  0  0  0  0
    8.5669  -10.6350    0.0000 C   0  0  0  0  0  0  0  0  0  0  0  0
    5.7150   -9.8225    0.0000 C   0  0  0  0  0  0  0  0  0  0  0  0
    6.4276  -11.0611    0.0000 C   0  0  0  0  0  0  0  0  0  0  0  0
    9.9940  -10.6295    0.0000 C   0  0  0  0  0  0  0  0  0  0  0  0
    9.2735   -9.3960    0.0000 N   0  0  0  0  0  0  0  0  0  0  0  0
    9.9883   -9.8014    0.0000 C   0  0  0  0  0  0  0  0  0  0  0  0
    9.2782   -6.9401    0.0000 C   0  0  0  0  0  0  0  0  0  0  0  0
    9.9902   -7.3531    0.0000 C   0  0  0  0  0  0  0  0  0  0  0  0
   10.7053   -6.9423    0.0000 C   0  0  0  0  0  0  0  0  0  0  0  0
   10.7040   -6.1142    0.0000 C   0  0  0  0  0  0  0  0  0  0  0  0
    9.9914   -5.7049    0.0000 C   0  0  0  0  0  0  0  0  0  0  0  0
   11.4187   -7.3544    0.0000 Cl  0  0  0  0  0  0  0  0  0  0  0  0
    5.0000  -11.0601    0.0000 C   0  0  0  0  0  0  0  0  0  0  0  0
    4.2868  -10.6476    0.0000 F   0  0  0  0  0  0  0  0  0  0  0  0
    4.9993  -11.8840    0.0000 F   0  0  0  0  0  0  0  0  0  0  0  0
    4.7874  -10.2642    0.0000 F   0  0  0  0  0  0  0  0  0  0  0  0
 18 31  1  0  0  0  0
 31 32  1  0  0  0  0
 31 33  1  0  0  0  0
 31 34  1  0  0  0  0
 21 17  2  0  0  0  0
 12 13  1  0  0  0  0
 17 15  1  0  0  0  0
 18 21  1  0  0  0  0
 13 19  2  0  0  0  0
 15 16  2  0  0  0  0
 19 14  1  0  0  0  0
 16 20  1  0  0  0  0
 14 22  2  0  0  0  0
 20 18  2  0  0  0  0
 22 24  1  0  0  0  0
 12  1  1  0  0  0  0
  1  6  1  0  0  0  0
  7  8  1  0  0  0  0
  5  4  1  0  0  0  0
 10 25  2  0  0  0  0
  8  9  2  0  0  0  0
 25 26  1  0  0  0  0
  4  2  1  0  0  0  0
 26 27  2  0  0  0  0
  8 10  1  0  0  0  0
 27 28  1  0  0  0  0
  2  3  1  0  0  0  0
 28 29  2  0  0  0  0
 29 10  1  0  0  0  0
  8 11  2  0  0  0  0
 27 30  1  0  0  0  0
  3  6  1  0  0  0  0
  1  5  1  0  0  0  0
  2  7  1  0  0  0  0
 15 12  1  0  0  0  0
 24 23  2  0  0  0  0
 23 13  1  0  0  0  0
M  END
> <Molecule Name>
DNDI1434938

> <CDD Number>
CDD-1535423

> <IC50_uM>
0.7 (n=1)

$$$$

SketchEl molfile

 36 39  0  0  0  0  0  0  0  0999 V2000
    7.8520   -8.5816    0.0000 N   0  0  0  0  0  0  0  0  0  0  0  0
    7.8534   -6.9379    0.0000 C   0  0  0  0  0  0  0  0  0  0  0  0
    7.1389   -7.3502    0.0000 C   0  0  0  0  0  0  0  0  0  0  0  0
    8.5660   -7.3522    0.0000 C   0  0  0  0  0  0  0  0  0  0  0  0
    8.5658   -8.1725    0.0000 C   0  0  0  0  0  0  0  0  0  0  0  0
    7.1371   -8.1768    0.0000 C   0  0  0  0  0  0  0  0  0  0  0  0
    7.8547   -6.1140    0.0000 N   0  0  0  0  0  0  0  0  0  0  0  0
    8.5689   -5.7032    0.0000 S   0  0  0  0  0  0  0  0  0  0  0  0
    8.9738   -5.0000    0.0000 O   0  0  0  0  0  0  0  0  0  0  0  0
    9.2818   -6.1163    0.0000 C   0  0  0  0  0  0  0  0  0  0  0  0
    8.0064   -5.0268    0.0000 O   0  0  0  0  0  0  0  0  0  0  0  0
    7.8524   -9.4045    0.0000 C   0  0  0  0  0  0  0  0  0  0  0  0
    8.5674   -9.8138    0.0000 C   0  0  0  0  0  0  0  0  0  0  0  0
    9.2814  -11.0446    0.0000 N   0  0  0  0  0  0  0  0  0  0  0  0
    7.1404   -9.8192    0.0000 C   0  0  0  0  0  0  0  0  0  0  0  0
    6.4259   -9.4106    0.0000 C   0  0  0  0  0  0  0  0  0  0  0  0
    7.1432  -10.6486    0.0000 C   0  0  0  0  0  0  0  0  0  0  0  0
    5.7139  -10.6491    0.0000 C   0  0  0  0  0  0  0  0  0  0  0  0
    8.5672  -10.6354    0.0000 C   0  0  0  0  0  0  0  0  0  0  0  0
    5.7150   -9.8228    0.0000 C   0  0  0  0  0  0  0  0  0  0  0  0
    6.4277  -11.0614    0.0000 C   0  0  0  0  0  0  0  0  0  0  0  0
    9.9944  -10.6299    0.0000 C   0  0  0  0  0  0  0  0  0  0  0  0
    9.2738   -9.3962    0.0000 N   0  0  0  0  0  0  0  0  0  0  0  0
    9.9886   -9.8017    0.0000 C   0  0  0  0  0  0  0  0  0  0  0  0
    9.2785   -6.9402    0.0000 C   0  0  0  0  0  0  0  0  0  0  0  0
    9.9905   -7.3532    0.0000 C   0  0  0  0  0  0  0  0  0  0  0  0
   10.7057   -6.9423    0.0000 C   0  0  0  0  0  0  0  0  0  0  0  0
   10.7044   -6.1142    0.0000 C   0  0  0  0  0  0  0  0  0  0  0  0
    9.9918   -5.7049    0.0000 C   0  0  0  0  0  0  0  0  0  0  0  0
   11.4191   -7.3545    0.0000 C   0  0  0  0  0  0  0  0  0  0  0  0
   11.4189   -8.1784    0.0000 C   0  0  0  0  0  0  0  0  0  0  0  0
   12.1328   -6.9427    0.0000 C   0  0  0  0  0  0  0  0  0  0  0  0
    5.0000  -11.0605    0.0000 C   0  0  0  0  0  0  0  0  0  0  0  0
    4.2868  -10.6480    0.0000 F   0  0  0  0  0  0  0  0  0  0  0  0
    4.9993  -11.8844    0.0000 F   0  0  0  0  0  0  0  0  0  0  0  0
    4.7874  -10.2645    0.0000 F   0  0  0  0  0  0  0  0  0  0  0  0
 18 33  1  0  0  0  0
 33 34  1  0  0  0  0
 33 35  1  0  0  0  0
 33 36  1  0  0  0  0
 14 22  2  0  0  0  0
 20 18  2  0  0  0  0
 22 24  1  0  0  0  0
 12  1  1  0  0  0  0
  1  6  1  0  0  0  0
  7  8  1  0  0  0  0
  5  4  1  0  0  0  0
 10 25  2  0  0  0  0
  8  9  2  0  0  0  0
 25 26  1  0  0  0  0
  4  2  1  0  0  0  0
 26 27  2  0  0  0  0
  8 10  1  0  0  0  0
 27 28  1  0  0  0  0
  2  3  1  0  0  0  0
 28 29  2  0  0  0  0
 29 10  1  0  0  0  0
  8 11  2  0  0  0  0
 27 30  1  0  0  0  0
  3  6  1  0  0  0  0
  1  5  1  0  0  0  0
  2  7  1  0  0  0  0
 15 12  1  0  0  0  0
 24 23  2  0  0  0  0
 23 13  1  0  0  0  0
 30 31  1  0  0  0  0
 21 17  2  0  0  0  0
 30 32  1  0  0  0  0
 12 13  1  0  0  0  0
 17 15  1  0  0  0  0
 18 21  1  0  0  0  0
 13 19  2  0  0  0  0
 15 16  2  0  0  0  0
 19 14  1  0  0  0  0
 16 20  1  0  0  0  0
M  END
> <Molecule Name>
DNDI1434939

> <CDD Number>
CDD-1535424

> <IC50_uM>
0.52 (n=1)

$$$$

SketchEl molfile

 28 30  0  0  0  0  0  0  0  0999 V2000
    7.8558   -8.2658    0.0000 N   0  0  0  0  0  0  0  0  0  0  0  0
    7.8571   -6.6200    0.0000 N   0  0  0  0  0  0  0  0  0  0  0  0
    7.1418   -7.0328    0.0000 C   0  0  0  0  0  0  0  0  0  0  0  0
    8.5707   -7.0348    0.0000 C   0  0  0  0  0  0  0  0  0  0  0  0
    8.5705   -7.8562    0.0000 C   0  0  0  0  0  0  0  0  0  0  0  0
    7.1399   -7.8605    0.0000 C   0  0  0  0  0  0  0  0  0  0  0  0
    7.8585   -5.7950    0.0000 C   0  0  0  0  0  0  0  0  0  0  0  0
    7.8561   -9.0898    0.0000 C   0  0  0  0  0  0  0  0  0  0  0  0
    8.5721   -9.4996    0.0000 C   0  0  0  0  0  0  0  0  0  0  0  0
    9.2871  -10.7320    0.0000 N   0  0  0  0  0  0  0  0  0  0  0  0
    7.1432   -9.5050    0.0000 C   0  0  0  0  0  0  0  0  0  0  0  0
    6.4278   -9.0959    0.0000 C   0  0  0  0  0  0  0  0  0  0  0  0
    7.1461  -10.3355    0.0000 C   0  0  0  0  0  0  0  0  0  0  0  0
    5.7148  -10.3360    0.0000 C   0  0  0  0  0  0  0  0  0  0  0  0
    8.5719  -10.3223    0.0000 C   0  0  0  0  0  0  0  0  0  0  0  0
    5.7160   -9.5087    0.0000 C   0  0  0  0  0  0  0  0  0  0  0  0
    6.4296  -10.7489    0.0000 C   0  0  0  0  0  0  0  0  0  0  0  0
   10.0010  -10.3168    0.0000 C   0  0  0  0  0  0  0  0  0  0  0  0
    9.2794   -9.0815    0.0000 C   0  0  0  0  0  0  0  0  0  0  0  0
    9.9952   -9.4875    0.0000 C   0  0  0  0  0  0  0  0  0  0  0  0
    5.0000  -10.7480    0.0000 Cl  0  0  0  0  0  0  0  0  0  0  0  0
    7.8612  -10.7469    0.0000 F   0  0  0  0  0  0  0  0  0  0  0  0
    8.5736   -5.3836    0.0000 O   0  0  0  0  0  0  0  0  0  0  0  0
    7.1446   -5.3814    0.0000 O   0  0  0  0  0  0  0  0  0  0  0  0
    9.2874   -5.7973    0.0000 C   0  0  0  0  0  0  0  0  0  0  0  0
   10.0025   -5.3859    0.0000 C   0  0  0  0  0  0  0  0  0  0  0  0
    9.2861   -6.6223    0.0000 C   0  0  0  0  0  0  0  0  0  0  0  0
    9.0752   -5.0000    0.0000 C   0  0  0  0  0  0  0  0  0  0  0  0
  2  3  1  0  0  0  0
  3  6  1  0  0  0  0
  1  5  1  0  0  0  0
  2  7  1  0  0  0  0
 11  8  1  0  0  0  0
 20 19  2  0  0  0  0
 19  9  1  0  0  0  0
 17 13  2  0  0  0  0
  8  9  1  0  0  0  0
 13 11  1  0  0  0  0
 14 17  1  0  0  0  0
  9 15  2  0  0  0  0
 11 12  2  0  0  0  0
 15 10  1  0  0  0  0
 12 16  1  0  0  0  0
 14 21  1  0  0  0  0
 10 18  2  0  0  0  0
 13 22  1  0  0  0  0
 16 14  2  0  0  0  0
  7 23  1  0  0  0  0
 18 20  1  0  0  0  0
  7 24  2  0  0  0  0
  8  1  1  0  0  0  0
 23 25  1  0  0  0  0
  1  6  1  0  0  0  0
 25 26  1  0  0  0  0
  5  4  1  0  0  0  0
 25 27  1  0  0  0  0
  4  2  1  0  0  0  0
 25 28  1  0  0  0  0
M  END
> <Molecule Name>
DNDI1434940

> <CDD Number>
CDD-1535425

> <IC50_uM>
0.02 (n=1)

$$$$

SketchEl molfile

 37 40  0  0  0  0  0  0  0  0999 V2000
    7.8521   -8.5818    0.0000 N   0  0  0  0  0  0  0  0  0  0  0  0
    7.8535   -6.9381    0.0000 C   0  0  0  0  0  0  0  0  0  0  0  0
    7.1390   -7.3504    0.0000 C   0  0  0  0  0  0  0  0  0  0  0  0
    8.5661   -7.3524    0.0000 C   0  0  0  0  0  0  0  0  0  0  0  0
    8.5659   -8.1727    0.0000 C   0  0  0  0  0  0  0  0  0  0  0  0
    7.1372   -8.1770    0.0000 C   0  0  0  0  0  0  0  0  0  0  0  0
    7.8548   -6.1141    0.0000 N   0  0  0  0  0  0  0  0  0  0  0  0
    8.5690   -5.7033    0.0000 S   0  0  0  0  0  0  0  0  0  0  0  0
    8.9740   -5.0000    0.0000 O   0  0  0  0  0  0  0  0  0  0  0  0
    9.2819   -6.1164    0.0000 C   0  0  0  0  0  0  0  0  0  0  0  0
    8.0065   -5.0269    0.0000 O   0  0  0  0  0  0  0  0  0  0  0  0
    7.8525   -9.4047    0.0000 C   0  0  0  0  0  0  0  0  0  0  0  0
    8.5676   -9.8140    0.0000 C   0  0  0  0  0  0  0  0  0  0  0  0
    9.2816  -11.0448    0.0000 N   0  0  0  0  0  0  0  0  0  0  0  0
    7.1405   -9.8194    0.0000 C   0  0  0  0  0  0  0  0  0  0  0  0
    6.4260   -9.4108    0.0000 C   0  0  0  0  0  0  0  0  0  0  0  0
    7.1433  -10.6489    0.0000 C   0  0  0  0  0  0  0  0  0  0  0  0
    5.7139  -10.6493    0.0000 C   0  0  0  0  0  0  0  0  0  0  0  0
    8.5673  -10.6356    0.0000 C   0  0  0  0  0  0  0  0  0  0  0  0
    5.7150   -9.8230    0.0000 C   0  0  0  0  0  0  0  0  0  0  0  0
    6.4278  -11.0617    0.0000 C   0  0  0  0  0  0  0  0  0  0  0  0
    9.9946  -10.6301    0.0000 C   0  0  0  0  0  0  0  0  0  0  0  0
    9.2740   -9.3964    0.0000 N   0  0  0  0  0  0  0  0  0  0  0  0
    9.9888   -9.8019    0.0000 C   0  0  0  0  0  0  0  0  0  0  0  0
    9.2786   -6.9403    0.0000 C   0  0  0  0  0  0  0  0  0  0  0  0
    9.9907   -7.3534    0.0000 C   0  0  0  0  0  0  0  0  0  0  0  0
   10.7059   -6.9425    0.0000 C   0  0  0  0  0  0  0  0  0  0  0  0
   10.7046   -6.1143    0.0000 C   0  0  0  0  0  0  0  0  0  0  0  0
    9.9919   -5.7050    0.0000 C   0  0  0  0  0  0  0  0  0  0  0  0
    5.0000  -11.0608    0.0000 C   0  0  0  0  0  0  0  0  0  0  0  0
    4.2868  -10.6482    0.0000 F   0  0  0  0  0  0  0  0  0  0  0  0
    4.9993  -11.8847    0.0000 F   0  0  0  0  0  0  0  0  0  0  0  0
    4.7874  -10.2647    0.0000 F   0  0  0  0  0  0  0  0  0  0  0  0
   11.4194   -7.3546    0.0000 C   0  0  0  0  0  0  0  0  0  0  0  0
   11.4191   -8.1786    0.0000 F   0  0  0  0  0  0  0  0  0  0  0  0
   12.1330   -6.9429    0.0000 F   0  0  0  0  0  0  0  0  0  0  0  0
   12.2152   -7.5681    0.0000 F   0  0  0  0  0  0  0  0  0  0  0  0
 18 30  1  0  0  0  0
 30 31  1  0  0  0  0
 30 32  1  0  0  0  0
 30 33  1  0  0  0  0
 27 34  1  0  0  0  0
 34 35  1  0  0  0  0
 34 36  1  0  0  0  0
 34 37  1  0  0  0  0
  2  3  1  0  0  0  0
 28 29  2  0  0  0  0
 29 10  1  0  0  0  0
  8 11  2  0  0  0  0
  3  6  1  0  0  0  0
  1  5  1  0  0  0  0
  2  7  1  0  0  0  0
 15 12  1  0  0  0  0
 24 23  2  0  0  0  0
 23 13  1  0  0  0  0
 21 17  2  0  0  0  0
 12 13  1  0  0  0  0
 17 15  1  0  0  0  0
 18 21  1  0  0  0  0
 13 19  2  0  0  0  0
 15 16  2  0  0  0  0
 19 14  1  0  0  0  0
 16 20  1  0  0  0  0
 14 22  2  0  0  0  0
 20 18  2  0  0  0  0
 22 24  1  0  0  0  0
 12  1  1  0  0  0  0
  1  6  1  0  0  0  0
  7  8  1  0  0  0  0
  5  4  1  0  0  0  0
 10 25  2  0  0  0  0
  8  9  2  0  0  0  0
 25 26  1  0  0  0  0
  4  2  1  0  0  0  0
 26 27  2  0  0  0  0
  8 10  1  0  0  0  0
 27 28  1  0  0  0  0
M  END
> <Molecule Name>
DNDI1434941

> <CDD Number>
CDD-1535426

> <IC50_uM>
0.59 (n=1)

$$$$

SketchEl molfile

 29 31  0  0  0  0  0  0  0  0999 V2000
    7.8561   -8.7077    0.0000 N   0  0  0  0  0  0  0  0  0  0  0  0
    7.8575   -7.0617    0.0000 C   0  0  0  0  0  0  0  0  0  0  0  0
    7.1420   -7.4746    0.0000 C   0  0  0  0  0  0  0  0  0  0  0  0
    8.5712   -7.4765    0.0000 C   0  0  0  0  0  0  0  0  0  0  0  0
    8.5710   -8.2981    0.0000 C   0  0  0  0  0  0  0  0  0  0  0  0
    7.1402   -8.3023    0.0000 C   0  0  0  0  0  0  0  0  0  0  0  0
    7.8588   -6.2366    0.0000 N   0  0  0  0  0  0  0  0  0  0  0  0
    8.5741   -5.8252    0.0000 C   0  0  0  0  0  0  0  0  0  0  0  0
    9.2880   -6.2388    0.0000 N   0  0  0  0  0  0  0  0  0  0  0  0
    7.8565   -9.5318    0.0000 C   0  0  0  0  0  0  0  0  0  0  0  0
    8.5726   -9.9417    0.0000 C   0  0  0  0  0  0  0  0  0  0  0  0
    9.2876  -11.1742    0.0000 N   0  0  0  0  0  0  0  0  0  0  0  0
    7.1435   -9.9471    0.0000 C   0  0  0  0  0  0  0  0  0  0  0  0
    6.4280   -9.5379    0.0000 C   0  0  0  0  0  0  0  0  0  0  0  0
    7.1463  -10.7777    0.0000 C   0  0  0  0  0  0  0  0  0  0  0  0
    5.7149  -10.7782    0.0000 C   0  0  0  0  0  0  0  0  0  0  0  0
    8.5724  -10.7645    0.0000 C   0  0  0  0  0  0  0  0  0  0  0  0
    5.7160   -9.9507    0.0000 C   0  0  0  0  0  0  0  0  0  0  0  0
    6.4298  -11.1911    0.0000 C   0  0  0  0  0  0  0  0  0  0  0  0
   10.0016  -10.7589    0.0000 C   0  0  0  0  0  0  0  0  0  0  0  0
    9.2800   -9.5235    0.0000 N   0  0  0  0  0  0  0  0  0  0  0  0
    9.9959   -9.9296    0.0000 C   0  0  0  0  0  0  0  0  0  0  0  0
    9.2847   -7.0639    0.0000 C   0  0  0  0  0  0  0  0  0  0  0  0
    9.9990   -5.8268    0.0000 C   0  0  0  0  0  0  0  0  0  0  0  0
    8.5754   -5.0000    0.0000 O   0  0  0  0  0  0  0  0  0  0  0  0
    5.0000  -11.1902    0.0000 C   0  0  0  0  0  0  0  0  0  0  0  0
    4.2858  -10.7771    0.0000 F   0  0  0  0  0  0  0  0  0  0  0  0
    4.9993  -12.0153    0.0000 F   0  0  0  0  0  0  0  0  0  0  0  0
    4.7871  -10.3930    0.0000 F   0  0  0  0  0  0  0  0  0  0  0  0
 16 26  1  0  0  0  0
 26 27  1  0  0  0  0
 26 28  1  0  0  0  0
 26 29  1  0  0  0  0
 22 21  2  0  0  0  0
 21 11  1  0  0  0  0
 19 15  2  0  0  0  0
 10 11  1  0  0  0  0
 15 13  1  0  0  0  0
 16 19  1  0  0  0  0
 11 17  2  0  0  0  0
 13 14  2  0  0  0  0
 17 12  1  0  0  0  0
 14 18  1  0  0  0  0
 12 20  2  0  0  0  0
 18 16  2  0  0  0  0
 20 22  1  0  0  0  0
 10  1  1  0  0  0  0
  1  6  1  0  0  0  0
  7  8  1  0  0  0  0
  5  4  1  0  0  0  0
  9 23  1  0  0  0  0
  4  2  1  0  0  0  0
  8  9  1  0  0  0  0
  8 25  2  0  0  0  0
  2  3  1  0  0  0  0
 24  9  1  0  0  0  0
  3  6  1  0  0  0  0
  1  5  1  0  0  0  0
  2  7  1  0  0  0  0
 13 10  1  0  0  0  0
M  END
> <Molecule Name>
DNDI1434942

> <CDD Number>
CDD-1535427

> <IC50_uM>
0.25 (n=1)

$$$$

SketchEl molfile

 29 32  0  0  0  0  0  0  0  0999 V2000
    7.8562   -8.7078    0.0000 N   0  0  0  0  0  0  0  0  0  0  0  0
    7.8576   -7.0617    0.0000 C   0  0  0  0  0  0  0  0  0  0  0  0
    7.1421   -7.4746    0.0000 C   0  0  0  0  0  0  0  0  0  0  0  0
    8.5713   -7.4766    0.0000 C   0  0  0  0  0  0  0  0  0  0  0  0
    8.5711   -8.2981    0.0000 C   0  0  0  0  0  0  0  0  0  0  0  0
    7.1403   -8.3024    0.0000 C   0  0  0  0  0  0  0  0  0  0  0  0
    7.8589   -6.2366    0.0000 N   0  0  0  0  0  0  0  0  0  0  0  0
    8.5742   -5.8251    0.0000 C   0  0  0  0  0  0  0  0  0  0  0  0
    9.2881   -6.2388    0.0000 C   0  0  0  0  0  0  0  0  0  0  0  0
    7.8566   -9.5319    0.0000 C   0  0  0  0  0  0  0  0  0  0  0  0
    8.5727   -9.9418    0.0000 C   0  0  0  0  0  0  0  0  0  0  0  0
    9.2878  -11.1744    0.0000 N   0  0  0  0  0  0  0  0  0  0  0  0
    7.1436   -9.9472    0.0000 C   0  0  0  0  0  0  0  0  0  0  0  0
    6.4280   -9.5380    0.0000 C   0  0  0  0  0  0  0  0  0  0  0  0
    7.1464  -10.7779    0.0000 C   0  0  0  0  0  0  0  0  0  0  0  0
    5.7149  -10.7783    0.0000 C   0  0  0  0  0  0  0  0  0  0  0  0
    8.5725  -10.7646    0.0000 C   0  0  0  0  0  0  0  0  0  0  0  0
    5.7161   -9.9508    0.0000 C   0  0  0  0  0  0  0  0  0  0  0  0
    6.4299  -11.1913    0.0000 C   0  0  0  0  0  0  0  0  0  0  0  0
   10.0018  -10.7591    0.0000 C   0  0  0  0  0  0  0  0  0  0  0  0
    9.2802   -9.5236    0.0000 N   0  0  0  0  0  0  0  0  0  0  0  0
    9.9960   -9.9297    0.0000 C   0  0  0  0  0  0  0  0  0  0  0  0
    8.5755   -5.0000    0.0000 O   0  0  0  0  0  0  0  0  0  0  0  0
    9.6988   -6.9503    0.0000 C   0  0  0  0  0  0  0  0  0  0  0  0
   10.1125   -6.2364    0.0000 C   0  0  0  0  0  0  0  0  0  0  0  0
    5.0000  -11.1904    0.0000 C   0  0  0  0  0  0  0  0  0  0  0  0
    4.2857  -10.7772    0.0000 F   0  0  0  0  0  0  0  0  0  0  0  0
    4.9993  -12.0155    0.0000 F   0  0  0  0  0  0  0  0  0  0  0  0
    4.7871  -10.3932    0.0000 F   0  0  0  0  0  0  0  0  0  0  0  0
 16 26  1  0  0  0  0
 26 27  1  0  0  0  0
 26 28  1  0  0  0  0
 26 29  1  0  0  0  0
 17 12  1  0  0  0  0
 14 18  1  0  0  0  0
 12 20  2  0  0  0  0
 18 16  2  0  0  0  0
 20 22  1  0  0  0  0
 10  1  1  0  0  0  0
  1  6  1  0  0  0  0
  7  8  1  0  0  0  0
  5  4  1  0  0  0  0
  4  2  1  0  0  0  0
  8  9  1  0  0  0  0
  8 23  2  0  0  0  0
  2  3  1  0  0  0  0
  3  6  1  0  0  0  0
  1  5  1  0  0  0  0
  2  7  1  0  0  0  0
 13 10  1  0  0  0  0
 24  9  1  0  0  0  0
 25 24  1  0  0  0  0
  9 25  1  0  0  0  0
 22 21  2  0  0  0  0
 21 11  1  0  0  0  0
 19 15  2  0  0  0  0
 10 11  1  0  0  0  0
 15 13  1  0  0  0  0
 16 19  1  0  0  0  0
 11 17  2  0  0  0  0
 13 14  2  0  0  0  0
M  END
> <Molecule Name>
DNDI1434943

> <CDD Number>
CDD-1535428

> <IC50_uM>
0.616035713250458 ร/รท 1.10239894736141 (n=2)

$$$$

SketchEl molfile

 28 30  0  0  0  0  0  0  0  0999 V2000
    7.8654   -8.2489    0.0000 N   0  0  0  0  0  0  0  0  0  0  0  0
    7.8560   -9.0738    0.0000 C   0  0  0  0  0  0  0  0  0  0  0  0
    8.5720   -9.4836    0.0000 C   0  0  0  0  0  0  0  0  0  0  0  0
    9.2869  -10.7159    0.0000 N   0  0  0  0  0  0  0  0  0  0  0  0
    7.1431   -9.4890    0.0000 C   0  0  0  0  0  0  0  0  0  0  0  0
    6.4278   -9.0798    0.0000 C   0  0  0  0  0  0  0  0  0  0  0  0
    7.1460  -10.3195    0.0000 C   0  0  0  0  0  0  0  0  0  0  0  0
    5.0000  -10.7319    0.0000 Cl  0  0  0  0  0  0  0  0  0  0  0  0
    5.7148  -10.3199    0.0000 C   0  0  0  0  0  0  0  0  0  0  0  0
    8.5718  -10.3062    0.0000 C   0  0  0  0  0  0  0  0  0  0  0  0
    5.7159   -9.4926    0.0000 C   0  0  0  0  0  0  0  0  0  0  0  0
    6.4296  -10.7328    0.0000 C   0  0  0  0  0  0  0  0  0  0  0  0
   10.0008  -10.3007    0.0000 C   0  0  0  0  0  0  0  0  0  0  0  0
    9.2793   -9.0655    0.0000 C   0  0  0  0  0  0  0  0  0  0  0  0
    9.9950   -9.4715    0.0000 N   0  0  0  0  0  0  0  0  0  0  0  0
    8.5855   -7.8490    0.0000 C   0  0  0  0  0  0  0  0  0  0  0  0
    8.5968   -7.0277    0.0000 C   0  0  0  0  0  0  0  0  0  0  0  0
    7.8890   -6.6033    0.0000 N   0  0  0  0  0  0  0  0  0  0  0  0
    7.1681   -7.0064    0.0000 C   0  0  0  0  0  0  0  0  0  0  0  0
    7.1550   -7.8339    0.0000 C   0  0  0  0  0  0  0  0  0  0  0  0
    7.9014   -5.7784    0.0000 C   0  0  0  0  0  0  0  0  0  0  0  0
    8.6220   -5.3768    0.0000 O   0  0  0  0  0  0  0  0  0  0  0  0
    7.8611  -10.7308    0.0000 F   0  0  0  0  0  0  0  0  0  0  0  0
    7.1933   -5.3552    0.0000 O   0  0  0  0  0  0  0  0  0  0  0  0
    9.3302   -5.8000    0.0000 C   0  0  0  0  0  0  0  0  0  0  0  0
   10.0508   -5.3984    0.0000 C   0  0  0  0  0  0  0  0  0  0  0  0
    9.3177   -6.6249    0.0000 C   0  0  0  0  0  0  0  0  0  0  0  0
    9.1287   -5.0000    0.0000 C   0  0  0  0  0  0  0  0  0  0  0  0
 18 19  1  0  0  0  0
 19 20  1  0  0  0  0
 14  3  1  0  0  0  0
 18 21  1  0  0  0  0
 12  7  2  0  0  0  0
  2  3  1  0  0  0  0
  7  5  1  0  0  0  0
  9 12  1  0  0  0  0
  3 10  2  0  0  0  0
  5  6  2  0  0  0  0
 10  4  1  0  0  0  0
 21 22  1  0  0  0  0
  6 11  1  0  0  0  0
  4 13  2  0  0  0  0
 11  9  2  0  0  0  0
 13 15  1  0  0  0  0
  1 16  1  0  0  0  0
  1  2  1  0  0  0  0
  5  2  1  0  0  0  0
  7 23  1  0  0  0  0
  9  8  1  0  0  0  0
 21 24  2  0  0  0  0
 15 14  2  0  0  0  0
 22 25  1  0  0  0  0
  1 20  1  0  0  0  0
 25 26  1  0  0  0  0
 16 17  1  0  0  0  0
 25 27  1  0  0  0  0
 17 18  1  0  0  0  0
 25 28  1  0  0  0  0
M  END
> <Molecule Name>
DNDI1434944

> <CDD Number>
CDD-1535429

> <IC50_uM>
0.024 (n=1)

$$$$

SketchEl molfile

 28 30  0  0  0  0  0  0  0  0999 V2000
    7.8558   -8.7071    0.0000 N   0  0  0  0  0  0  0  0  0  0  0  0
    7.8571   -7.0613    0.0000 C   0  0  0  0  0  0  0  0  0  0  0  0
    7.1418   -7.4742    0.0000 C   0  0  0  0  0  0  0  0  0  0  0  0
    8.5707   -7.4761    0.0000 C   0  0  0  0  0  0  0  0  0  0  0  0
    8.5705   -8.2975    0.0000 C   0  0  0  0  0  0  0  0  0  0  0  0
    7.1399   -8.3018    0.0000 C   0  0  0  0  0  0  0  0  0  0  0  0
    7.8585   -6.2363    0.0000 N   0  0  0  0  0  0  0  0  0  0  0  0
    8.5736   -5.8250    0.0000 C   0  0  0  0  0  0  0  0  0  0  0  0
    9.2874   -6.2386    0.0000 C   0  0  0  0  0  0  0  0  0  0  0  0
    7.8561   -9.5312    0.0000 C   0  0  0  0  0  0  0  0  0  0  0  0
    8.5721   -9.9410    0.0000 C   0  0  0  0  0  0  0  0  0  0  0  0
    9.2871  -11.1733    0.0000 N   0  0  0  0  0  0  0  0  0  0  0  0
    7.1432   -9.9464    0.0000 C   0  0  0  0  0  0  0  0  0  0  0  0
    6.4278   -9.5372    0.0000 C   0  0  0  0  0  0  0  0  0  0  0  0
    7.1461  -10.7769    0.0000 C   0  0  0  0  0  0  0  0  0  0  0  0
    5.7148  -10.7774    0.0000 C   0  0  0  0  0  0  0  0  0  0  0  0
    8.5719  -10.7636    0.0000 C   0  0  0  0  0  0  0  0  0  0  0  0
    5.7160   -9.9500    0.0000 C   0  0  0  0  0  0  0  0  0  0  0  0
    6.4296  -11.1902    0.0000 C   0  0  0  0  0  0  0  0  0  0  0  0
   10.0010  -10.7581    0.0000 C   0  0  0  0  0  0  0  0  0  0  0  0
    9.2794   -9.5228    0.0000 N   0  0  0  0  0  0  0  0  0  0  0  0
    9.9952   -9.9288    0.0000 C   0  0  0  0  0  0  0  0  0  0  0  0
    8.5749   -5.0000    0.0000 O   0  0  0  0  0  0  0  0  0  0  0  0
   10.0025   -5.8272    0.0000 C   0  0  0  0  0  0  0  0  0  0  0  0
    5.0000  -11.1893    0.0000 C   0  0  0  0  0  0  0  0  0  0  0  0
    4.2859  -10.7762    0.0000 F   0  0  0  0  0  0  0  0  0  0  0  0
    4.9993  -12.0143    0.0000 F   0  0  0  0  0  0  0  0  0  0  0  0
    4.7871  -10.3922    0.0000 F   0  0  0  0  0  0  0  0  0  0  0  0
 16 25  1  0  0  0  0
 25 26  1  0  0  0  0
 25 27  1  0  0  0  0
 25 28  1  0  0  0  0
  7  8  1  0  0  0  0
  5  4  1  0  0  0  0
  4  2  1  0  0  0  0
  8  9  1  0  0  0  0
  8 23  2  0  0  0  0
  2  3  1  0  0  0  0
  3  6  1  0  0  0  0
  1  5  1  0  0  0  0
  2  7  1  0  0  0  0
 13 10  1  0  0  0  0
 22 21  2  0  0  0  0
 21 11  1  0  0  0  0
 19 15  2  0  0  0  0
 10 11  1  0  0  0  0
 15 13  1  0  0  0  0
 16 19  1  0  0  0  0
 11 17  2  0  0  0  0
 13 14  2  0  0  0  0
  9 24  1  0  0  0  0
 17 12  1  0  0  0  0
 14 18  1  0  0  0  0
 12 20  2  0  0  0  0
 18 16  2  0  0  0  0
 20 22  1  0  0  0  0
 10  1  1  0  0  0  0
  1  6  1  0  0  0  0
M  END
> <Molecule Name>
DNDI1434945

> <CDD Number>
CDD-1535430

> <IC50_uM>
1.04 (n=1)

$$$$

SketchEl molfile

 29 31  0  0  0  0  0  0  0  0999 V2000
    7.8513   -8.5807    0.0000 N   0  0  0  0  0  0  0  0  0  0  0  0
    7.8527   -6.9375    0.0000 C   0  0  0  0  0  0  0  0  0  0  0  0
    7.1384   -7.3497    0.0000 C   0  0  0  0  0  0  0  0  0  0  0  0
    8.5651   -7.3516    0.0000 C   0  0  0  0  0  0  0  0  0  0  0  0
    8.5649   -8.1718    0.0000 C   0  0  0  0  0  0  0  0  0  0  0  0
    7.1366   -8.1760    0.0000 C   0  0  0  0  0  0  0  0  0  0  0  0
    7.8540   -6.1138    0.0000 N   0  0  0  0  0  0  0  0  0  0  0  0
    8.5680   -5.7031    0.0000 S   0  0  0  0  0  0  0  0  0  0  0  0
    8.9728   -5.0000    0.0000 O   0  0  0  0  0  0  0  0  0  0  0  0
    9.2807   -6.1160    0.0000 C   0  0  0  0  0  0  0  0  0  0  0  0
    8.0057   -5.0268    0.0000 O   0  0  0  0  0  0  0  0  0  0  0  0
    7.8516   -9.4034    0.0000 C   0  0  0  0  0  0  0  0  0  0  0  0
    8.5666   -9.8126    0.0000 C   0  0  0  0  0  0  0  0  0  0  0  0
    9.2804  -11.0431    0.0000 N   0  0  0  0  0  0  0  0  0  0  0  0
    7.1398   -9.8180    0.0000 C   0  0  0  0  0  0  0  0  0  0  0  0
    6.4256   -9.4095    0.0000 C   0  0  0  0  0  0  0  0  0  0  0  0
    7.1427  -10.6472    0.0000 C   0  0  0  0  0  0  0  0  0  0  0  0
    5.7137  -10.6477    0.0000 C   0  0  0  0  0  0  0  0  0  0  0  0
    8.5663  -10.6340    0.0000 C   0  0  0  0  0  0  0  0  0  0  0  0
    5.7148   -9.8216    0.0000 C   0  0  0  0  0  0  0  0  0  0  0  0
    6.4274  -11.0599    0.0000 C   0  0  0  0  0  0  0  0  0  0  0  0
    9.9931  -10.6285    0.0000 C   0  0  0  0  0  0  0  0  0  0  0  0
    9.2727   -9.3951    0.0000 N   0  0  0  0  0  0  0  0  0  0  0  0
    9.9874   -9.8005    0.0000 C   0  0  0  0  0  0  0  0  0  0  0  0
    9.9905   -5.7047    0.0000 C   0  0  0  0  0  0  0  0  0  0  0  0
    5.0000  -11.0590    0.0000 C   0  0  0  0  0  0  0  0  0  0  0  0
    4.2870  -10.6466    0.0000 F   0  0  0  0  0  0  0  0  0  0  0  0
    4.9993  -11.8827    0.0000 F   0  0  0  0  0  0  0  0  0  0  0  0
    4.7874  -10.2632    0.0000 F   0  0  0  0  0  0  0  0  0  0  0  0
 18 26  1  0  0  0  0
 26 27  1  0  0  0  0
 26 28  1  0  0  0  0
 26 29  1  0  0  0  0
 15 12  1  0  0  0  0
 24 23  2  0  0  0  0
 23 13  1  0  0  0  0
 21 17  2  0  0  0  0
 12 13  1  0  0  0  0
 17 15  1  0  0  0  0
 18 21  1  0  0  0  0
 13 19  2  0  0  0  0
 15 16  2  0  0  0  0
 19 14  1  0  0  0  0
 16 20  1  0  0  0  0
 14 22  2  0  0  0  0
 20 18  2  0  0  0  0
 22 24  1  0  0  0  0
 12  1  1  0  0  0  0
  1  6  1  0  0  0  0
  7  8  1  0  0  0  0
  5  4  1  0  0  0  0
  8  9  2  0  0  0  0
  4  2  1  0  0  0  0
  8 10  1  0  0  0  0
  2  3  1  0  0  0  0
 25 10  1  0  0  0  0
  8 11  2  0  0  0  0
  3  6  1  0  0  0  0
  1  5  1  0  0  0  0
  2  7  1  0  0  0  0
M  END
> <Molecule Name>
DNDI1434946

> <CDD Number>
CDD-1535431

> <IC50_uM>
1.14 (n=1)

$$$$

SketchEl molfile

 21 23  0  0  0  0  0  0  0  0999 V2000
    7.8556   -6.9378    0.0000 C   0  0  0  0  0  0  0  0  0  0  0  0
    7.8560   -7.7618    0.0000 C   0  0  0  0  0  0  0  0  0  0  0  0
    8.5719   -8.1716    0.0000 C   0  0  0  0  0  0  0  0  0  0  0  0
    9.2868   -9.4039    0.0000 C   0  0  0  0  0  0  0  0  0  0  0  0
    7.1431   -8.1770    0.0000 C   0  0  0  0  0  0  0  0  0  0  0  0
    6.4277   -7.7679    0.0000 C   0  0  0  0  0  0  0  0  0  0  0  0
    7.1459   -9.0075    0.0000 C   0  0  0  0  0  0  0  0  0  0  0  0
    5.7148   -9.0079    0.0000 C   0  0  0  0  0  0  0  0  0  0  0  0
    8.5717   -8.9942    0.0000 C   0  0  0  0  0  0  0  0  0  0  0  0
    5.7159   -8.1806    0.0000 C   0  0  0  0  0  0  0  0  0  0  0  0
    6.4295   -9.4208    0.0000 C   0  0  0  0  0  0  0  0  0  0  0  0
   10.0007   -8.9887    0.0000 C   0  0  0  0  0  0  0  0  0  0  0  0
    9.2792   -7.7535    0.0000 C   0  0  0  0  0  0  0  0  0  0  0  0
    9.9949   -8.1595    0.0000 N   0  0  0  0  0  0  0  0  0  0  0  0
    5.0000   -9.4199    0.0000 Cl  0  0  0  0  0  0  0  0  0  0  0  0
    8.5193   -6.4512    0.0000 S   0  0  0  0  0  0  0  0  0  0  0  0
    8.2643   -5.6676    0.0000 C   0  0  0  0  0  0  0  0  0  0  0  0
    7.4403   -5.6680    0.0000 N   0  0  0  0  0  0  0  0  0  0  0  0
    7.1861   -6.4518    0.0000 C   0  0  0  0  0  0  0  0  0  0  0  0
    8.5672   -7.3432    0.0000 O   0  0  0  0  0  0  0  0  0  0  0  0
    8.7489   -5.0000    0.0000 Cl  0  0  0  0  0  0  0  0  0  0  0  0
  8 11  1  0  0  0  0
  3  9  2  0  0  0  0
  5  6  2  0  0  0  0
  9  4  1  0  0  0  0
  6 10  1  0  0  0  0
  4 12  2  0  0  0  0
 10  8  2  0  0  0  0
 12 14  1  0  0  0  0
  2  1  1  0  0  0  0
  8 15  1  0  0  0  0
  1 16  1  0  0  0  0
  5  2  1  0  0  0  0
 14 13  2  0  0  0  0
 13  3  1  0  0  0  0
 11  7  2  0  0  0  0
 16 17  1  0  0  0  0
 17 18  2  0  0  0  0
 18 19  1  0  0  0  0
 19  1  2  0  0  0  0
  2  3  1  0  0  0  0
  2 20  1  0  0  0  0
  7  5  1  0  0  0  0
 17 21  1  0  0  0  0
M  END
> <Molecule Name>
DNDI1434947

> <CDD Number>
CDD-1535432

> <IC50_uM>
0.49 (n=1)

$$$$

SketchEl molfile

 32 35  0  0  0  0  0  0  0  0999 V2000
    8.5628   -7.4724    0.0000 S   0  0  0  0  0  0  0  0  0  0  0  0
    7.1435  -11.5930    0.0000 C   0  0  0  0  0  0  0  0  0  0  0  0
    7.8511  -10.3526    0.0000 N   0  0  0  0  0  0  0  0  0  0  0  0
    7.8553  -11.1767    0.0000 C   0  0  0  0  0  0  0  0  0  0  0  0
    7.1435  -12.4212    0.0000 C   0  0  0  0  0  0  0  0  0  0  0  0
    7.8511   -7.8844    0.0000 N   0  0  0  0  0  0  0  0  0  0  0  0
    8.5712  -11.5846    0.0000 C   0  0  0  0  0  0  0  0  0  0  0  0
    6.4276  -11.1809    0.0000 C   0  0  0  0  0  0  0  0  0  0  0  0
    6.4276  -12.8333    0.0000 C   0  0  0  0  0  0  0  0  0  0  0  0
    9.2746   -7.8803    0.0000 O   0  0  0  0  0  0  0  0  0  0  0  0
    7.8511   -7.0562    0.0000 O   0  0  0  0  0  0  0  0  0  0  0  0
    9.2746  -11.1684    0.0000 N   0  0  0  0  0  0  0  0  0  0  0  0
    8.5545   -6.6441    0.0000 C   0  0  0  0  0  0  0  0  0  0  0  0
    7.1352   -9.9489    0.0000 C   0  0  0  0  0  0  0  0  0  0  0  0
    8.5628   -9.9406    0.0000 C   0  0  0  0  0  0  0  0  0  0  0  0
    9.2829  -12.8167    0.0000 N   0  0  0  0  0  0  0  0  0  0  0  0
    8.5628   -9.1206    0.0000 C   0  0  0  0  0  0  0  0  0  0  0  0
    7.1352   -9.1206    0.0000 C   0  0  0  0  0  0  0  0  0  0  0  0
    7.8511   -8.7086    0.0000 C   0  0  0  0  0  0  0  0  0  0  0  0
    5.7159  -12.4212    0.0000 C   0  0  0  0  0  0  0  0  0  0  0  0
    7.8594  -12.8333    0.0000 F   0  0  0  0  0  0  0  0  0  0  0  0
    5.7159  -11.5971    0.0000 C   0  0  0  0  0  0  0  0  0  0  0  0
    8.5712  -12.4088    0.0000 C   0  0  0  0  0  0  0  0  0  0  0  0
    5.0000  -12.8333    0.0000 F   0  0  0  0  0  0  0  0  0  0  0  0
    7.8345   -6.2321    0.0000 C   0  0  0  0  0  0  0  0  0  0  0  0
    9.9905  -11.5722    0.0000 C   0  0  0  0  0  0  0  0  0  0  0  0
    9.9988  -12.4004    0.0000 C   0  0  0  0  0  0  0  0  0  0  0  0
    7.8303   -5.4079    0.0000 C   0  0  0  0  0  0  0  0  0  0  0  0
    7.1269   -6.6566    0.0000 C   0  0  0  0  0  0  0  0  0  0  0  0
    6.4027   -6.2529    0.0000 C   0  0  0  0  0  0  0  0  0  0  0  0
    7.1102   -5.0000    0.0000 C   0  0  0  0  0  0  0  0  0  0  0  0
    6.3943   -5.4204    0.0000 C   0  0  0  0  0  0  0  0  0  0  0  0
  2  4  1  0  0  0  0
  3 14  1  0  0  0  0
  4  3  1  0  0  0  0
  5  2  1  0  0  0  0
  6  1  1  0  0  0  0
  7  4  1  0  0  0  0
  8  2  2  0  0  0  0
  9  5  2  0  0  0  0
 10  1  2  0  0  0  0
 11  1  2  0  0  0  0
 12  7  1  0  0  0  0
 13  1  1  0  0  0  0
 14 18  1  0  0  0  0
 15 17  1  0  0  0  0
 16 23  1  0  0  0  0
 17 19  1  0  0  0  0
 18 19  1  0  0  0  0
 19  6  1  0  0  0  0
 20 22  2  0  0  0  0
 21  5  1  0  0  0  0
 22  8  1  0  0  0  0
 23  7  2  0  0  0  0
 24 20  1  0  0  0  0
 25 13  1  0  0  0  0
 26 12  2  0  0  0  0
 27 16  2  0  0  0  0
 28 25  2  0  0  0  0
 29 25  1  0  0  0  0
 30 29  2  0  0  0  0
 31 28  1  0  0  0  0
 32 30  1  0  0  0  0
 15  3  1  0  0  0  0
 32 31  2  0  0  0  0
 26 27  1  0  0  0  0
  9 20  1  0  0  0  0
M  END
> <Molecule Name>
DNDI1434948

> <CDD Number>
CDD-1535433

> <IC50_uM>
0.72 (n=1)

$$$$

SketchEl molfile

 29 31  0  0  0  0  0  0  0  0999 V2000
    8.5637   -7.0816    0.0000 S   0  0  0  0  0  0  0  0  0  0  0  0
    7.1441  -11.2032    0.0000 C   0  0  0  0  0  0  0  0  0  0  0  0
    7.8518   -9.9626    0.0000 N   0  0  0  0  0  0  0  0  0  0  0  0
    7.8560  -10.7869    0.0000 C   0  0  0  0  0  0  0  0  0  0  0  0
    7.1441  -12.0317    0.0000 C   0  0  0  0  0  0  0  0  0  0  0  0
    7.8518   -7.4938    0.0000 N   0  0  0  0  0  0  0  0  0  0  0  0
    8.5721  -11.1949    0.0000 C   0  0  0  0  0  0  0  0  0  0  0  0
    6.4280  -10.7911    0.0000 C   0  0  0  0  0  0  0  0  0  0  0  0
    6.4280  -12.4439    0.0000 C   0  0  0  0  0  0  0  0  0  0  0  0
    9.2757   -7.4896    0.0000 O   0  0  0  0  0  0  0  0  0  0  0  0
    7.8518   -6.6653    0.0000 O   0  0  0  0  0  0  0  0  0  0  0  0
    9.2757  -10.7786    0.0000 N   0  0  0  0  0  0  0  0  0  0  0  0
    8.5554   -6.2531    0.0000 C   0  0  0  0  0  0  0  0  0  0  0  0
    7.1357   -9.5588    0.0000 C   0  0  0  0  0  0  0  0  0  0  0  0
    8.5637   -9.5504    0.0000 C   0  0  0  0  0  0  0  0  0  0  0  0
    9.2840  -12.4272    0.0000 N   0  0  0  0  0  0  0  0  0  0  0  0
    8.5637   -8.7303    0.0000 C   0  0  0  0  0  0  0  0  0  0  0  0
    7.1357   -8.7303    0.0000 C   0  0  0  0  0  0  0  0  0  0  0  0
    7.8518   -8.3181    0.0000 C   0  0  0  0  0  0  0  0  0  0  0  0
    5.7161  -12.0317    0.0000 C   0  0  0  0  0  0  0  0  0  0  0  0
    7.8602  -12.4439    0.0000 F   0  0  0  0  0  0  0  0  0  0  0  0
    5.7161  -11.2074    0.0000 C   0  0  0  0  0  0  0  0  0  0  0  0
    8.5721  -12.0192    0.0000 C   0  0  0  0  0  0  0  0  0  0  0  0
    5.0000  -12.4439    0.0000 F   0  0  0  0  0  0  0  0  0  0  0  0
    9.9917  -11.1824    0.0000 C   0  0  0  0  0  0  0  0  0  0  0  0
   10.0001  -12.0109    0.0000 C   0  0  0  0  0  0  0  0  0  0  0  0
    9.2715   -5.8285    0.0000 C   0  0  0  0  0  0  0  0  0  0  0  0
    9.2632   -5.0000    0.0000 C   0  0  0  0  0  0  0  0  0  0  0  0
    9.9959   -6.2365    0.0000 C   0  0  0  0  0  0  0  0  0  0  0  0
  2  4  1  0  0  0  0
  3 14  1  0  0  0  0
  4  3  1  0  0  0  0
  5  2  1  0  0  0  0
  6  1  1  0  0  0  0
  7  4  1  0  0  0  0
  8  2  2  0  0  0  0
  9  5  2  0  0  0  0
 10  1  2  0  0  0  0
 11  1  2  0  0  0  0
 12  7  1  0  0  0  0
 13  1  1  0  0  0  0
 14 18  1  0  0  0  0
 15 17  1  0  0  0  0
 16 23  1  0  0  0  0
 17 19  1  0  0  0  0
 18 19  1  0  0  0  0
 19  6  1  0  0  0  0
 20 22  2  0  0  0  0
 21  5  1  0  0  0  0
 22  8  1  0  0  0  0
 23  7  2  0  0  0  0
 24 20  1  0  0  0  0
 25 12  2  0  0  0  0
 26 16  2  0  0  0  0
 27 13  1  0  0  0  0
 28 27  1  0  0  0  0
 29 27  1  0  0  0  0
 15  3  1  0  0  0  0
 25 26  1  0  0  0  0
  9 20  1  0  0  0  0
M  END
> <Molecule Name>
DNDI1434949

> <CDD Number>
CDD-1535434

> <IC50_uM>
0.75 (n=1)

$$$$

SketchEl molfile

 27 29  0  0  0  0  0  0  0  0999 V2000
    8.5667   -5.4125    0.0000 S   0  0  0  0  0  0  0  0  0  0  0  0
    7.1459   -9.5376    0.0000 C   0  0  0  0  0  0  0  0  0  0  0  0
    7.8542   -8.2959    0.0000 N   0  0  0  0  0  0  0  0  0  0  0  0
    7.8584   -9.1209    0.0000 C   0  0  0  0  0  0  0  0  0  0  0  0
    7.1459  -10.3668    0.0000 C   0  0  0  0  0  0  0  0  0  0  0  0
    7.8542   -5.8250    0.0000 N   0  0  0  0  0  0  0  0  0  0  0  0
    8.5751   -9.5293    0.0000 C   0  0  0  0  0  0  0  0  0  0  0  0
    6.4292   -9.1251    0.0000 C   0  0  0  0  0  0  0  0  0  0  0  0
    6.4292  -10.7793    0.0000 C   0  0  0  0  0  0  0  0  0  0  0  0
    9.2792   -5.8250    0.0000 O   0  0  0  0  0  0  0  0  0  0  0  0
    7.8542   -5.0000    0.0000 O   0  0  0  0  0  0  0  0  0  0  0  0
    9.2792   -9.1126    0.0000 N   0  0  0  0  0  0  0  0  0  0  0  0
    8.5667   -7.8834    0.0000 C   0  0  0  0  0  0  0  0  0  0  0  0
    7.1375   -7.8917    0.0000 C   0  0  0  0  0  0  0  0  0  0  0  0
    9.2876  -10.7626    0.0000 N   0  0  0  0  0  0  0  0  0  0  0  0
    7.1375   -7.0626    0.0000 C   0  0  0  0  0  0  0  0  0  0  0  0
    8.5667   -7.0626    0.0000 C   0  0  0  0  0  0  0  0  0  0  0  0
    7.8542   -6.6501    0.0000 C   0  0  0  0  0  0  0  0  0  0  0  0
    5.7167  -10.3668    0.0000 C   0  0  0  0  0  0  0  0  0  0  0  0
    7.8626  -10.7793    0.0000 F   0  0  0  0  0  0  0  0  0  0  0  0
    9.2876   -5.0042    0.0000 C   0  0  0  0  0  0  0  0  0  0  0  0
    5.7167   -9.5376    0.0000 C   0  0  0  0  0  0  0  0  0  0  0  0
    8.5751  -10.3543    0.0000 C   0  0  0  0  0  0  0  0  0  0  0  0
    5.0000  -10.7793    0.0000 F   0  0  0  0  0  0  0  0  0  0  0  0
    9.9959   -9.5168    0.0000 C   0  0  0  0  0  0  0  0  0  0  0  0
   10.0043  -10.3460    0.0000 C   0  0  0  0  0  0  0  0  0  0  0  0
    9.9959   -5.4209    0.0000 C   0  0  0  0  0  0  0  0  0  0  0  0
  2  4  1  0  0  0  0
  3 14  1  0  0  0  0
  4  3  1  0  0  0  0
  5  2  1  0  0  0  0
  6  1  1  0  0  0  0
  7  4  1  0  0  0  0
  8  2  2  0  0  0  0
  9  5  2  0  0  0  0
 10  1  2  0  0  0  0
 11  1  2  0  0  0  0
 12  7  1  0  0  0  0
 13 17  1  0  0  0  0
 14 16  1  0  0  0  0
 15 23  1  0  0  0  0
 16 18  1  0  0  0  0
 17 18  1  0  0  0  0
 18  6  1  0  0  0  0
 19 22  2  0  0  0  0
 20  5  1  0  0  0  0
 21  1  1  0  0  0  0
 22  8  1  0  0  0  0
 23  7  2  0  0  0  0
 24 19  1  0  0  0  0
 25 12  2  0  0  0  0
 26 15  2  0  0  0  0
 27 21  1  0  0  0  0
 13  3  1  0  0  0  0
 25 26  1  0  0  0  0
  9 19  1  0  0  0  0
M  END
> <Molecule Name>
DNDI1434950

> <CDD Number>
CDD-1535435

> <IC50_uM>
1.89 (n=1)

$$$$

SketchEl molfile

 34 37  0  0  0  0  0  0  0  0999 V2000
    8.5623   -8.7828    0.0000 S   0  0  0  0  0  0  0  0  0  0  0  0
    7.1432  -12.9028    0.0000 C   0  0  0  0  0  0  0  0  0  0  0  0
    7.8506  -11.6626    0.0000 N   0  0  0  0  0  0  0  0  0  0  0  0
    7.8548  -12.4866    0.0000 C   0  0  0  0  0  0  0  0  0  0  0  0
    7.8506   -9.1948    0.0000 N   0  0  0  0  0  0  0  0  0  0  0  0
    7.1432  -13.7309    0.0000 C   0  0  0  0  0  0  0  0  0  0  0  0
    8.7745   -7.9838    0.0000 C   0  0  0  0  0  0  0  0  0  0  0  0
    8.5706  -12.8944    0.0000 C   0  0  0  0  0  0  0  0  0  0  0  0
    7.8506   -8.3709    0.0000 O   0  0  0  0  0  0  0  0  0  0  0  0
    9.2739   -9.1948    0.0000 O   0  0  0  0  0  0  0  0  0  0  0  0
    6.4274  -12.4908    0.0000 C   0  0  0  0  0  0  0  0  0  0  0  0
    6.4274  -14.1429    0.0000 C   0  0  0  0  0  0  0  0  0  0  0  0
    9.2739  -12.4783    0.0000 N   0  0  0  0  0  0  0  0  0  0  0  0
    7.1349  -11.2590    0.0000 C   0  0  0  0  0  0  0  0  0  0  0  0
    8.5623  -11.2506    0.0000 C   0  0  0  0  0  0  0  0  0  0  0  0
    9.1907   -6.3816    0.0000 C   0  0  0  0  0  0  0  0  0  0  0  0
    9.2822  -14.1263    0.0000 N   0  0  0  0  0  0  0  0  0  0  0  0
    9.5735   -7.7633    0.0000 C   0  0  0  0  0  0  0  0  0  0  0  0
    8.1836   -7.4054    0.0000 C   0  0  0  0  0  0  0  0  0  0  0  0
    7.8506  -10.0188    0.0000 C   0  0  0  0  0  0  0  0  0  0  0  0
    7.1349  -10.4308    0.0000 C   0  0  0  0  0  0  0  0  0  0  0  0
    8.5623  -10.4308    0.0000 C   0  0  0  0  0  0  0  0  0  0  0  0
    8.3916   -6.6064    0.0000 C   0  0  0  0  0  0  0  0  0  0  0  0
    9.7816   -6.9643    0.0000 C   0  0  0  0  0  0  0  0  0  0  0  0
    5.7158  -13.7309    0.0000 C   0  0  0  0  0  0  0  0  0  0  0  0
    7.8590  -14.1429    0.0000 F   0  0  0  0  0  0  0  0  0  0  0  0
    5.7158  -12.9028    0.0000 C   0  0  0  0  0  0  0  0  0  0  0  0
    9.3987   -5.5826    0.0000 C   0  0  0  0  0  0  0  0  0  0  0  0
    8.5706  -13.7184    0.0000 C   0  0  0  0  0  0  0  0  0  0  0  0
    5.0000  -14.1429    0.0000 F   0  0  0  0  0  0  0  0  0  0  0  0
    9.9897  -12.8820    0.0000 C   0  0  0  0  0  0  0  0  0  0  0  0
    9.9980  -13.7101    0.0000 C   0  0  0  0  0  0  0  0  0  0  0  0
   10.1978   -5.3621    0.0000 C   0  0  0  0  0  0  0  0  0  0  0  0
    8.8078   -5.0000    0.0000 C   0  0  0  0  0  0  0  0  0  0  0  0
  2  4  1  0  0  0  0
  3 14  1  0  0  0  0
  4  3  1  0  0  0  0
  5  1  1  0  0  0  0
  6  2  1  0  0  0  0
  7  1  1  0  0  0  0
  8  4  1  0  0  0  0
  9  1  2  0  0  0  0
 10  1  2  0  0  0  0
 11  2  2  0  0  0  0
 12  6  2  0  0  0  0
 13  8  1  0  0  0  0
 14 21  1  0  0  0  0
 15 22  1  0  0  0  0
 16 23  1  0  0  0  0
 17 29  1  0  0  0  0
 18  7  2  0  0  0  0
 19  7  1  0  0  0  0
 20  5  1  0  0  0  0
 21 20  1  0  0  0  0
 22 20  1  0  0  0  0
 23 19  2  0  0  0  0
 24 18  1  0  0  0  0
 25 27  2  0  0  0  0
 26  6  1  0  0  0  0
 27 11  1  0  0  0  0
 28 16  1  0  0  0  0
 29  8  2  0  0  0  0
 30 25  1  0  0  0  0
 31 13  2  0  0  0  0
 32 17  2  0  0  0  0
 33 28  1  0  0  0  0
 34 28  1  0  0  0  0
 16 24  2  0  0  0  0
 15  3  1  0  0  0  0
 31 32  1  0  0  0  0
 12 25  1  0  0  0  0
M  END
> <Molecule Name>
DNDI1434951

> <CDD Number>
CDD-1535436

> <IC50_uM>
0.85 (n=1)

$$$$

SketchEl molfile

 35 38  0  0  0  0  0  0  0  0999 V2000
    8.5619   -9.0280    0.0000 S   0  0  0  0  0  0  0  0  0  0  0  0
    7.1430  -13.1475    0.0000 C   0  0  0  0  0  0  0  0  0  0  0  0
    9.3983   -5.8281    0.0000 C   0  0  0  0  0  0  0  0  0  0  0  0
    7.8504  -11.9075    0.0000 N   0  0  0  0  0  0  0  0  0  0  0  0
    7.8545  -12.7314    0.0000 C   0  0  0  0  0  0  0  0  0  0  0  0
    7.8504   -9.4399    0.0000 N   0  0  0  0  0  0  0  0  0  0  0  0
    7.1430  -13.9755    0.0000 C   0  0  0  0  0  0  0  0  0  0  0  0
    8.7741   -8.2291    0.0000 C   0  0  0  0  0  0  0  0  0  0  0  0
    8.5702  -13.1392    0.0000 C   0  0  0  0  0  0  0  0  0  0  0  0
    9.2735   -9.4399    0.0000 O   0  0  0  0  0  0  0  0  0  0  0  0
    7.8504   -8.6160    0.0000 O   0  0  0  0  0  0  0  0  0  0  0  0
    6.4273  -12.7355    0.0000 C   0  0  0  0  0  0  0  0  0  0  0  0
    6.4273  -14.3875    0.0000 C   0  0  0  0  0  0  0  0  0  0  0  0
    9.1902   -6.6270    0.0000 C   0  0  0  0  0  0  0  0  0  0  0  0
    9.2735  -12.7231    0.0000 N   0  0  0  0  0  0  0  0  0  0  0  0
    7.1347  -11.5038    0.0000 C   0  0  0  0  0  0  0  0  0  0  0  0
    8.5619  -11.4955    0.0000 C   0  0  0  0  0  0  0  0  0  0  0  0
    9.2818  -14.3709    0.0000 N   0  0  0  0  0  0  0  0  0  0  0  0
    8.1833   -7.6507    0.0000 C   0  0  0  0  0  0  0  0  0  0  0  0
    9.5731   -8.0085    0.0000 C   0  0  0  0  0  0  0  0  0  0  0  0
    7.8504  -10.2638    0.0000 C   0  0  0  0  0  0  0  0  0  0  0  0
    9.7811   -7.2096    0.0000 C   0  0  0  0  0  0  0  0  0  0  0  0
    8.3913   -6.8517    0.0000 C   0  0  0  0  0  0  0  0  0  0  0  0
   10.1972   -5.6076    0.0000 F   0  0  0  0  0  0  0  0  0  0  0  0
    8.8074   -5.2455    0.0000 F   0  0  0  0  0  0  0  0  0  0  0  0
    9.3941   -5.0000    0.0000 F   0  0  0  0  0  0  0  0  0  0  0  0
    7.1347  -10.6758    0.0000 C   0  0  0  0  0  0  0  0  0  0  0  0
    8.5619  -10.6758    0.0000 C   0  0  0  0  0  0  0  0  0  0  0  0
    5.7157  -13.9755    0.0000 C   0  0  0  0  0  0  0  0  0  0  0  0
    7.8587  -14.3875    0.0000 F   0  0  0  0  0  0  0  0  0  0  0  0
    5.7157  -13.1475    0.0000 C   0  0  0  0  0  0  0  0  0  0  0  0
    8.5702  -13.9631    0.0000 C   0  0  0  0  0  0  0  0  0  0  0  0
    5.0000  -14.3875    0.0000 F   0  0  0  0  0  0  0  0  0  0  0  0
    9.9892  -13.1267    0.0000 C   0  0  0  0  0  0  0  0  0  0  0  0
    9.9975  -13.9547    0.0000 C   0  0  0  0  0  0  0  0  0  0  0  0
  2  5  1  0  0  0  0
  3 14  1  0  0  0  0
  4 16  1  0  0  0  0
  5  4  1  0  0  0  0
  6  1  1  0  0  0  0
  7  2  1  0  0  0  0
  8  1  1  0  0  0  0
  9  5  1  0  0  0  0
 10  1  2  0  0  0  0
 11  1  2  0  0  0  0
 12  2  2  0  0  0  0
 13  7  2  0  0  0  0
 14 23  1  0  0  0  0
 15  9  1  0  0  0  0
 16 27  1  0  0  0  0
 17 28  1  0  0  0  0
 18 32  1  0  0  0  0
 19  8  1  0  0  0  0
 20  8  2  0  0  0  0
 21  6  1  0  0  0  0
 22 20  1  0  0  0  0
 23 19  2  0  0  0  0
 24  3  1  0  0  0  0
 25  3  1  0  0  0  0
 26  3  1  0  0  0  0
 27 21  1  0  0  0  0
 28 21  1  0  0  0  0
 29 31  2  0  0  0  0
 30  7  1  0  0  0  0
 31 12  1  0  0  0  0
 32  9  2  0  0  0  0
 33 29  1  0  0  0  0
 34 15  2  0  0  0  0
 35 18  2  0  0  0  0
 14 22  2  0  0  0  0
 17  4  1  0  0  0  0
 34 35  1  0  0  0  0
 13 29  1  0  0  0  0
M  END
> <Molecule Name>
DNDI1434952

> <CDD Number>
CDD-1535437

> <IC50_uM>
> 1.0 (n=1)

$$$$

SketchEl molfile

 32 35  0  0  0  0  0  0  0  0999 V2000
    8.5634   -8.2012    0.0000 S   0  0  0  0  0  0  0  0  0  0  0  0
    7.1438  -12.3224    0.0000 C   0  0  0  0  0  0  0  0  0  0  0  0
    7.8515  -11.0819    0.0000 N   0  0  0  0  0  0  0  0  0  0  0  0
    7.8557  -11.9061    0.0000 C   0  0  0  0  0  0  0  0  0  0  0  0
    7.8515   -8.6133    0.0000 N   0  0  0  0  0  0  0  0  0  0  0  0
    7.1438  -13.1508    0.0000 C   0  0  0  0  0  0  0  0  0  0  0  0
    8.7757   -7.4020    0.0000 C   0  0  0  0  0  0  0  0  0  0  0  0
    8.5717  -12.3141    0.0000 C   0  0  0  0  0  0  0  0  0  0  0  0
    7.8515   -7.7891    0.0000 O   0  0  0  0  0  0  0  0  0  0  0  0
    9.2752   -8.6133    0.0000 O   0  0  0  0  0  0  0  0  0  0  0  0
    6.4278  -11.9103    0.0000 C   0  0  0  0  0  0  0  0  0  0  0  0
    6.4278  -13.5629    0.0000 C   0  0  0  0  0  0  0  0  0  0  0  0
    9.2752  -11.8978    0.0000 N   0  0  0  0  0  0  0  0  0  0  0  0
    7.1355  -10.6781    0.0000 C   0  0  0  0  0  0  0  0  0  0  0  0
    8.5634  -10.6698    0.0000 C   0  0  0  0  0  0  0  0  0  0  0  0
    9.2835  -13.5462    0.0000 N   0  0  0  0  0  0  0  0  0  0  0  0
    7.8515   -9.4376    0.0000 C   0  0  0  0  0  0  0  0  0  0  0  0
    8.5634   -9.8497    0.0000 C   0  0  0  0  0  0  0  0  0  0  0  0
    7.1355   -9.8497    0.0000 C   0  0  0  0  0  0  0  0  0  0  0  0
    9.5749   -7.1813    0.0000 C   0  0  0  0  0  0  0  0  0  0  0  0
    8.1845   -6.8233    0.0000 C   0  0  0  0  0  0  0  0  0  0  0  0
    5.7160  -13.1508    0.0000 C   0  0  0  0  0  0  0  0  0  0  0  0
    7.8598  -13.5629    0.0000 F   0  0  0  0  0  0  0  0  0  0  0  0
    5.7160  -12.3224    0.0000 C   0  0  0  0  0  0  0  0  0  0  0  0
    9.1919   -5.7993    0.0000 C   0  0  0  0  0  0  0  0  0  0  0  0
    8.3927   -6.0241    0.0000 C   0  0  0  0  0  0  0  0  0  0  0  0
    9.7830   -6.3821    0.0000 C   0  0  0  0  0  0  0  0  0  0  0  0
    8.5717  -13.1383    0.0000 C   0  0  0  0  0  0  0  0  0  0  0  0
    5.0000  -13.5629    0.0000 F   0  0  0  0  0  0  0  0  0  0  0  0
    9.4001   -5.0000    0.0000 Cl  0  0  0  0  0  0  0  0  0  0  0  0
    9.9912  -12.3016    0.0000 C   0  0  0  0  0  0  0  0  0  0  0  0
    9.9995  -13.1300    0.0000 C   0  0  0  0  0  0  0  0  0  0  0  0
  2  4  1  0  0  0  0
  3 14  1  0  0  0  0
  4  3  1  0  0  0  0
  5  1  1  0  0  0  0
  6  2  1  0  0  0  0
  7  1  1  0  0  0  0
  8  4  1  0  0  0  0
  9  1  2  0  0  0  0
 10  1  2  0  0  0  0
 11  2  2  0  0  0  0
 12  6  2  0  0  0  0
 13  8  1  0  0  0  0
 14 19  1  0  0  0  0
 15 18  1  0  0  0  0
 16 28  1  0  0  0  0
 17  5  1  0  0  0  0
 18 17  1  0  0  0  0
 19 17  1  0  0  0  0
 20  7  2  0  0  0  0
 21  7  1  0  0  0  0
 22 24  2  0  0  0  0
 23  6  1  0  0  0  0
 24 11  1  0  0  0  0
 25 26  1  0  0  0  0
 26 21  2  0  0  0  0
 27 20  1  0  0  0  0
 28  8  2  0  0  0  0
 29 22  1  0  0  0  0
 30 25  1  0  0  0  0
 31 13  2  0  0  0  0
 32 16  2  0  0  0  0
 25 27  2  0  0  0  0
 15  3  1  0  0  0  0
 31 32  1  0  0  0  0
 12 22  1  0  0  0  0
M  END
> <Molecule Name>
DNDI1434953

> <CDD Number>
CDD-1535438

> <IC50_uM>
> 1.0 (n=1)

$$$$

SketchEl molfile

 26 28  0  0  0  0  0  0  0  0999 V2000
    8.5667   -5.8000    0.0000 S   0  0  0  0  0  0  0  0  0  0  0  0
    7.1458   -9.9250    0.0000 C   0  0  0  0  0  0  0  0  0  0  0  0
    7.8542   -8.6834    0.0000 N   0  0  0  0  0  0  0  0  0  0  0  0
    7.8583   -9.5084    0.0000 C   0  0  0  0  0  0  0  0  0  0  0  0
    7.1458  -10.7542    0.0000 C   0  0  0  0  0  0  0  0  0  0  0  0
    7.8542   -6.2125    0.0000 N   0  0  0  0  0  0  0  0  0  0  0  0
    8.5750   -9.9167    0.0000 C   0  0  0  0  0  0  0  0  0  0  0  0
    6.4292   -9.5125    0.0000 C   0  0  0  0  0  0  0  0  0  0  0  0
    6.4292  -11.1667    0.0000 C   0  0  0  0  0  0  0  0  0  0  0  0
    9.2792   -6.2084    0.0000 O   0  0  0  0  0  0  0  0  0  0  0  0
    7.8542   -5.3875    0.0000 O   0  0  0  0  0  0  0  0  0  0  0  0
    9.2792   -9.5000    0.0000 N   0  0  0  0  0  0  0  0  0  0  0  0
    8.5667   -8.2709    0.0000 C   0  0  0  0  0  0  0  0  0  0  0  0
    7.1375   -8.2792    0.0000 C   0  0  0  0  0  0  0  0  0  0  0  0
    9.2875  -11.1500    0.0000 N   0  0  0  0  0  0  0  0  0  0  0  0
    7.1375   -7.4500    0.0000 C   0  0  0  0  0  0  0  0  0  0  0  0
    8.5667   -7.4500    0.0000 C   0  0  0  0  0  0  0  0  0  0  0  0
    7.8542   -7.0375    0.0000 C   0  0  0  0  0  0  0  0  0  0  0  0
    5.7167  -10.7542    0.0000 C   0  0  0  0  0  0  0  0  0  0  0  0
    7.8625  -11.1667    0.0000 F   0  0  0  0  0  0  0  0  0  0  0  0
    8.7792   -5.0000    0.0000 C   0  0  0  0  0  0  0  0  0  0  0  0
    5.7167   -9.9250    0.0000 C   0  0  0  0  0  0  0  0  0  0  0  0
    8.5750  -10.7417    0.0000 C   0  0  0  0  0  0  0  0  0  0  0  0
    5.0000  -11.1667    0.0000 F   0  0  0  0  0  0  0  0  0  0  0  0
    9.9958   -9.9042    0.0000 C   0  0  0  0  0  0  0  0  0  0  0  0
   10.0042  -10.7334    0.0000 C   0  0  0  0  0  0  0  0  0  0  0  0
  2  4  1  0  0  0  0
  3 14  1  0  0  0  0
  4  3  1  0  0  0  0
  5  2  1  0  0  0  0
  6  1  1  0  0  0  0
  7  4  1  0  0  0  0
  8  2  2  0  0  0  0
  9  5  2  0  0  0  0
 10  1  2  0  0  0  0
 11  1  2  0  0  0  0
 12  7  1  0  0  0  0
 13 17  1  0  0  0  0
 14 16  1  0  0  0  0
 15 23  1  0  0  0  0
 16 18  1  0  0  0  0
 17 18  1  0  0  0  0
 18  6  1  0  0  0  0
 19  9  1  0  0  0  0
 20  5  1  0  0  0  0
 21  1  1  0  0  0  0
 22  8  1  0  0  0  0
 23  7  2  0  0  0  0
 24 19  1  0  0  0  0
 25 12  2  0  0  0  0
 26 15  2  0  0  0  0
 13  3  1  0  0  0  0
 19 22  2  0  0  0  0
 25 26  1  0  0  0  0
M  END
> <Molecule Name>
DNDI1434954

> <CDD Number>
CDD-1535439

> <IC50_uM>
1.38 (n=1)

$$$$

SketchEl molfile

 31 34  0  0  0  0  0  0  0  0999 V2000
    8.5637   -7.4022    0.0000 S   0  0  0  0  0  0  0  0  0  0  0  0
    7.1441  -11.5238    0.0000 C   0  0  0  0  0  0  0  0  0  0  0  0
    7.8518  -10.2831    0.0000 N   0  0  0  0  0  0  0  0  0  0  0  0
    7.8560  -11.1074    0.0000 C   0  0  0  0  0  0  0  0  0  0  0  0
    7.8518   -7.8143    0.0000 N   0  0  0  0  0  0  0  0  0  0  0  0
    7.1441  -12.3522    0.0000 C   0  0  0  0  0  0  0  0  0  0  0  0
    8.5721  -11.5154    0.0000 C   0  0  0  0  0  0  0  0  0  0  0  0
    9.2756   -7.8102    0.0000 O   0  0  0  0  0  0  0  0  0  0  0  0
    7.8518   -6.9858    0.0000 O   0  0  0  0  0  0  0  0  0  0  0  0
    6.4280  -11.1116    0.0000 C   0  0  0  0  0  0  0  0  0  0  0  0
    6.4280  -12.7644    0.0000 C   0  0  0  0  0  0  0  0  0  0  0  0
    8.7760   -6.5987    0.0000 C   0  0  0  0  0  0  0  0  0  0  0  0
    9.2756  -11.0991    0.0000 N   0  0  0  0  0  0  0  0  0  0  0  0
    7.1357   -9.8793    0.0000 C   0  0  0  0  0  0  0  0  0  0  0  0
    8.5637   -9.8710    0.0000 C   0  0  0  0  0  0  0  0  0  0  0  0
    9.2840  -12.7477    0.0000 N   0  0  0  0  0  0  0  0  0  0  0  0
    7.8518   -8.6386    0.0000 C   0  0  0  0  0  0  0  0  0  0  0  0
    8.5637   -9.0508    0.0000 C   0  0  0  0  0  0  0  0  0  0  0  0
    7.1357   -9.0508    0.0000 C   0  0  0  0  0  0  0  0  0  0  0  0
    5.7161  -12.3522    0.0000 C   0  0  0  0  0  0  0  0  0  0  0  0
    7.8601  -12.7644    0.0000 F   0  0  0  0  0  0  0  0  0  0  0  0
    5.7161  -11.5279    0.0000 C   0  0  0  0  0  0  0  0  0  0  0  0
    8.5721  -12.3398    0.0000 C   0  0  0  0  0  0  0  0  0  0  0  0
    5.0000  -12.7644    0.0000 F   0  0  0  0  0  0  0  0  0  0  0  0
    9.9917  -11.5029    0.0000 C   0  0  0  0  0  0  0  0  0  0  0  0
   10.0000  -12.3314    0.0000 C   0  0  0  0  0  0  0  0  0  0  0  0
    9.5754   -6.3822    0.0000 C   0  0  0  0  0  0  0  0  0  0  0  0
    8.1849   -6.0241    0.0000 C   0  0  0  0  0  0  0  0  0  0  0  0
    8.3930   -5.2248    0.0000 C   0  0  0  0  0  0  0  0  0  0  0  0
    9.7836   -5.5828    0.0000 C   0  0  0  0  0  0  0  0  0  0  0  0
    9.1924   -5.0000    0.0000 C   0  0  0  0  0  0  0  0  0  0  0  0
  2  4  1  0  0  0  0
  3 14  1  0  0  0  0
  4  3  1  0  0  0  0
  5  1  1  0  0  0  0
  6  2  1  0  0  0  0
  7  4  1  0  0  0  0
  8  1  2  0  0  0  0
  9  1  2  0  0  0  0
 10  2  2  0  0  0  0
 11  6  2  0  0  0  0
 12  1  1  0  0  0  0
 13  7  1  0  0  0  0
 14 19  1  0  0  0  0
 15 18  1  0  0  0  0
 16 23  1  0  0  0  0
 17  5  1  0  0  0  0
 18 17  1  0  0  0  0
 19 17  1  0  0  0  0
 20 22  2  0  0  0  0
 21  6  1  0  0  0  0
 22 10  1  0  0  0  0
 23  7  2  0  0  0  0
 24 20  1  0  0  0  0
 25 13  2  0  0  0  0
 26 16  2  0  0  0  0
 27 12  2  0  0  0  0
 28 12  1  0  0  0  0
 29 28  2  0  0  0  0
 30 27  1  0  0  0  0
 31 29  1  0  0  0  0
 31 30  2  0  0  0  0
 15  3  1  0  0  0  0
 25 26  1  0  0  0  0
 11 20  1  0  0  0  0
M  END
> <Molecule Name>
DNDI1434955

> <CDD Number>
CDD-1535440

> <IC50_uM>
0.47 (n=1)

$$$$

SketchEl molfile

 31 34  0  0  0  0  0  0  0  0999 V2000
    7.1457  -11.5956    0.0000 C   0  0  0  0  0  0  0  0  0  0  0  0
    7.8540  -10.3540    0.0000 N   0  0  0  0  0  0  0  0  0  0  0  0
    7.8582  -11.1789    0.0000 C   0  0  0  0  0  0  0  0  0  0  0  0
    7.1457  -12.4247    0.0000 C   0  0  0  0  0  0  0  0  0  0  0  0
    8.5665   -7.4708    0.0000 C   0  0  0  0  0  0  0  0  0  0  0  0
    8.5748  -11.5873    0.0000 C   0  0  0  0  0  0  0  0  0  0  0  0
    6.4291  -11.1831    0.0000 C   0  0  0  0  0  0  0  0  0  0  0  0
    6.4291  -12.8372    0.0000 C   0  0  0  0  0  0  0  0  0  0  0  0
    7.8540   -7.8833    0.0000 N   0  0  0  0  0  0  0  0  0  0  0  0
    9.2790  -11.1706    0.0000 N   0  0  0  0  0  0  0  0  0  0  0  0
    8.5665   -9.9415    0.0000 C   0  0  0  0  0  0  0  0  0  0  0  0
    7.1374   -9.9498    0.0000 C   0  0  0  0  0  0  0  0  0  0  0  0
    9.2831   -7.8833    0.0000 O   0  0  0  0  0  0  0  0  0  0  0  0
    9.2873  -12.8205    0.0000 N   0  0  0  0  0  0  0  0  0  0  0  0
    8.5665   -9.1207    0.0000 C   0  0  0  0  0  0  0  0  0  0  0  0
    7.1374   -9.1207    0.0000 C   0  0  0  0  0  0  0  0  0  0  0  0
    8.5665   -6.6458    0.0000 C   0  0  0  0  0  0  0  0  0  0  0  0
    5.7166  -12.4247    0.0000 C   0  0  0  0  0  0  0  0  0  0  0  0
    7.8540   -8.7082    0.0000 C   0  0  0  0  0  0  0  0  0  0  0  0
    7.8624  -12.8372    0.0000 F   0  0  0  0  0  0  0  0  0  0  0  0
    5.7166  -11.5956    0.0000 C   0  0  0  0  0  0  0  0  0  0  0  0
    8.5748  -12.4122    0.0000 C   0  0  0  0  0  0  0  0  0  0  0  0
    5.0000  -12.8372    0.0000 F   0  0  0  0  0  0  0  0  0  0  0  0
    9.2831   -6.2333    0.0000 C   0  0  0  0  0  0  0  0  0  0  0  0
    9.9956  -11.5748    0.0000 C   0  0  0  0  0  0  0  0  0  0  0  0
   10.0039  -12.4039    0.0000 C   0  0  0  0  0  0  0  0  0  0  0  0
    9.9956   -6.6500    0.0000 C   0  0  0  0  0  0  0  0  0  0  0  0
    9.2790   -5.4125    0.0000 C   0  0  0  0  0  0  0  0  0  0  0  0
    9.9914   -5.0000    0.0000 C   0  0  0  0  0  0  0  0  0  0  0  0
   10.7081   -6.2375    0.0000 C   0  0  0  0  0  0  0  0  0  0  0  0
   10.7081   -5.4125    0.0000 C   0  0  0  0  0  0  0  0  0  0  0  0
  2  3  1  0  0  0  0
  3  1  1  0  0  0  0
  4  1  1  0  0  0  0
  5  9  1  0  0  0  0
  6  3  1  0  0  0  0
  7  1  2  0  0  0  0
  8  4  2  0  0  0  0
  9 19  1  0  0  0  0
 10  6  1  0  0  0  0
 11  2  1  0  0  0  0
 12  2  1  0  0  0  0
 13  5  2  0  0  0  0
 14 22  1  0  0  0  0
 15 11  1  0  0  0  0
 16 12  1  0  0  0  0
 17  5  1  0  0  0  0
 18 21  2  0  0  0  0
 19 16  1  0  0  0  0
 20  4  1  0  0  0  0
 21  7  1  0  0  0  0
 22  6  2  0  0  0  0
 23 18  1  0  0  0  0
 24 17  1  0  0  0  0
 25 10  2  0  0  0  0
 26 14  2  0  0  0  0
 27 24  2  0  0  0  0
 28 24  1  0  0  0  0
 29 28  2  0  0  0  0
 30 27  1  0  0  0  0
 31 29  1  0  0  0  0
  8 18  1  0  0  0  0
 25 26  1  0  0  0  0
 19 15  1  0  0  0  0
 31 30  2  0  0  0  0
M  END
> <Molecule Name>
DNDI1434956

> <CDD Number>
CDD-1535441

> <IC50_uM>
0.7 (n=1)

$$$$

SketchEl molfile

 34 37  0  0  0  0  0  0  0  0999 V2000
    7.1448  -12.8378    0.0000 C   0  0  0  0  0  0  0  0  0  0  0  0
    8.5649   -5.4164    0.0000 C   0  0  0  0  0  0  0  0  0  0  0  0
    7.8527  -11.5967    0.0000 N   0  0  0  0  0  0  0  0  0  0  0  0
    7.8569  -12.4213    0.0000 C   0  0  0  0  0  0  0  0  0  0  0  0
    8.5649   -8.7148    0.0000 C   0  0  0  0  0  0  0  0  0  0  0  0
    7.1448  -13.6665    0.0000 C   0  0  0  0  0  0  0  0  0  0  0  0
    7.8527   -9.1271    0.0000 N   0  0  0  0  0  0  0  0  0  0  0  0
    8.5732  -12.8294    0.0000 C   0  0  0  0  0  0  0  0  0  0  0  0
    6.4285  -12.4255    0.0000 C   0  0  0  0  0  0  0  0  0  0  0  0
    6.4285  -14.0788    0.0000 C   0  0  0  0  0  0  0  0  0  0  0  0
    8.5649   -6.2410    0.0000 C   0  0  0  0  0  0  0  0  0  0  0  0
    8.5649   -7.8902    0.0000 C   0  0  0  0  0  0  0  0  0  0  0  0
    9.2770  -12.4130    0.0000 N   0  0  0  0  0  0  0  0  0  0  0  0
    7.1364  -11.1927    0.0000 C   0  0  0  0  0  0  0  0  0  0  0  0
    8.5649  -11.1844    0.0000 C   0  0  0  0  0  0  0  0  0  0  0  0
    9.2812   -9.1271    0.0000 O   0  0  0  0  0  0  0  0  0  0  0  0
    9.2854  -14.0621    0.0000 N   0  0  0  0  0  0  0  0  0  0  0  0
    7.8486   -6.6575    0.0000 C   0  0  0  0  0  0  0  0  0  0  0  0
    9.2812   -6.6533    0.0000 C   0  0  0  0  0  0  0  0  0  0  0  0
    7.8527   -7.4821    0.0000 C   0  0  0  0  0  0  0  0  0  0  0  0
    9.2812   -7.4779    0.0000 C   0  0  0  0  0  0  0  0  0  0  0  0
    9.2812   -5.0000    0.0000 F   0  0  0  0  0  0  0  0  0  0  0  0
    7.8486   -5.0042    0.0000 F   0  0  0  0  0  0  0  0  0  0  0  0
    9.3645   -5.6288    0.0000 F   0  0  0  0  0  0  0  0  0  0  0  0
    7.8527   -9.9517    0.0000 C   0  0  0  0  0  0  0  0  0  0  0  0
    8.5649  -10.3640    0.0000 C   0  0  0  0  0  0  0  0  0  0  0  0
    7.1364  -10.3640    0.0000 C   0  0  0  0  0  0  0  0  0  0  0  0
    5.7163  -13.6665    0.0000 C   0  0  0  0  0  0  0  0  0  0  0  0
    7.8611  -14.0788    0.0000 F   0  0  0  0  0  0  0  0  0  0  0  0
    5.7163  -12.8419    0.0000 C   0  0  0  0  0  0  0  0  0  0  0  0
    8.5732  -13.6540    0.0000 C   0  0  0  0  0  0  0  0  0  0  0  0
    5.0000  -14.0788    0.0000 F   0  0  0  0  0  0  0  0  0  0  0  0
    9.9933  -12.8169    0.0000 C   0  0  0  0  0  0  0  0  0  0  0  0
   10.0017  -13.6457    0.0000 C   0  0  0  0  0  0  0  0  0  0  0  0
  2 11  1  0  0  0  0
  3  4  1  0  0  0  0
  4  1  1  0  0  0  0
  5  7  1  0  0  0  0
  6  1  1  0  0  0  0
  7 25  1  0  0  0  0
  8  4  1  0  0  0  0
  9  1  2  0  0  0  0
 10  6  2  0  0  0  0
 11 18  1  0  0  0  0
 12  5  1  0  0  0  0
 13  8  1  0  0  0  0
 14  3  1  0  0  0  0
 15  3  1  0  0  0  0
 16  5  2  0  0  0  0
 17 31  1  0  0  0  0
 18 20  2  0  0  0  0
 19 21  1  0  0  0  0
 20 12  1  0  0  0  0
 21 12  2  0  0  0  0
 22  2  1  0  0  0  0
 23  2  1  0  0  0  0
 24  2  1  0  0  0  0
 25 27  1  0  0  0  0
 26 15  1  0  0  0  0
 27 14  1  0  0  0  0
 28 30  2  0  0  0  0
 29  6  1  0  0  0  0
 30  9  1  0  0  0  0
 31  8  2  0  0  0  0
 32 28  1  0  0  0  0
 33 13  2  0  0  0  0
 34 17  2  0  0  0  0
 10 28  1  0  0  0  0
 25 26  1  0  0  0  0
 33 34  1  0  0  0  0
 11 19  2  0  0  0  0
M  END
> <Molecule Name>
DNDI1434957

> <CDD Number>
CDD-1535442

> <IC50_uM>
0.46 (n=1)

$$$$

SketchEl molfile

 31 34  0  0  0  0  0  0  0  0999 V2000
    7.1453  -12.4232    0.0000 C   0  0  0  0  0  0  0  0  0  0  0  0
    7.8535  -11.1818    0.0000 N   0  0  0  0  0  0  0  0  0  0  0  0
    7.8577  -12.0067    0.0000 C   0  0  0  0  0  0  0  0  0  0  0  0
    8.5658   -8.2992    0.0000 C   0  0  0  0  0  0  0  0  0  0  0  0
    7.1453  -13.2522    0.0000 C   0  0  0  0  0  0  0  0  0  0  0  0
    7.8535   -8.7116    0.0000 N   0  0  0  0  0  0  0  0  0  0  0  0
    8.5742  -12.4149    0.0000 C   0  0  0  0  0  0  0  0  0  0  0  0
    6.4288  -12.0108    0.0000 C   0  0  0  0  0  0  0  0  0  0  0  0
    6.4288  -13.6646    0.0000 C   0  0  0  0  0  0  0  0  0  0  0  0
    8.5658   -7.4744    0.0000 C   0  0  0  0  0  0  0  0  0  0  0  0
    9.2782  -11.9983    0.0000 N   0  0  0  0  0  0  0  0  0  0  0  0
    7.1370  -10.7778    0.0000 C   0  0  0  0  0  0  0  0  0  0  0  0
    8.5658  -10.7694    0.0000 C   0  0  0  0  0  0  0  0  0  0  0  0
    9.2823   -8.7116    0.0000 O   0  0  0  0  0  0  0  0  0  0  0  0
    9.2865  -13.6479    0.0000 N   0  0  0  0  0  0  0  0  0  0  0  0
    7.8535   -9.5364    0.0000 C   0  0  0  0  0  0  0  0  0  0  0  0
    7.1370   -9.9488    0.0000 C   0  0  0  0  0  0  0  0  0  0  0  0
    8.5658   -9.9488    0.0000 C   0  0  0  0  0  0  0  0  0  0  0  0
    9.2823   -7.0620    0.0000 C   0  0  0  0  0  0  0  0  0  0  0  0
    7.8535   -7.0661    0.0000 C   0  0  0  0  0  0  0  0  0  0  0  0
    5.7165  -13.2522    0.0000 C   0  0  0  0  0  0  0  0  0  0  0  0
    7.8618  -13.6646    0.0000 F   0  0  0  0  0  0  0  0  0  0  0  0
    5.7165  -12.4274    0.0000 C   0  0  0  0  0  0  0  0  0  0  0  0
    8.5658   -5.8248    0.0000 C   0  0  0  0  0  0  0  0  0  0  0  0
    7.8493   -6.2413    0.0000 C   0  0  0  0  0  0  0  0  0  0  0  0
    9.2823   -6.2372    0.0000 C   0  0  0  0  0  0  0  0  0  0  0  0
    8.5742  -13.2397    0.0000 C   0  0  0  0  0  0  0  0  0  0  0  0
    5.0000  -13.6646    0.0000 F   0  0  0  0  0  0  0  0  0  0  0  0
    8.5658   -5.0000    0.0000 Cl  0  0  0  0  0  0  0  0  0  0  0  0
    9.9947  -12.4024    0.0000 C   0  0  0  0  0  0  0  0  0  0  0  0
   10.0030  -13.2314    0.0000 C   0  0  0  0  0  0  0  0  0  0  0  0
  2  3  1  0  0  0  0
  3  1  1  0  0  0  0
  4  6  1  0  0  0  0
  5  1  1  0  0  0  0
  6 16  1  0  0  0  0
  7  3  1  0  0  0  0
  8  1  2  0  0  0  0
  9  5  2  0  0  0  0
 10  4  1  0  0  0  0
 11  7  1  0  0  0  0
 12  2  1  0  0  0  0
 13  2  1  0  0  0  0
 14  4  2  0  0  0  0
 15 27  1  0  0  0  0
 16 17  1  0  0  0  0
 17 12  1  0  0  0  0
 18 13  1  0  0  0  0
 19 10  2  0  0  0  0
 20 10  1  0  0  0  0
 21 23  2  0  0  0  0
 22  5  1  0  0  0  0
 23  8  1  0  0  0  0
 24 25  1  0  0  0  0
 25 20  2  0  0  0  0
 26 19  1  0  0  0  0
 27  7  2  0  0  0  0
 28 21  1  0  0  0  0
 29 24  1  0  0  0  0
 30 11  2  0  0  0  0
 31 15  2  0  0  0  0
  9 21  1  0  0  0  0
 16 18  1  0  0  0  0
 30 31  1  0  0  0  0
 24 26  2  0  0  0  0
M  END
> <Molecule Name>
DNDI1434958

> <CDD Number>
CDD-1535443

> <IC50_uM>
0.27 (n=1)

$$$$

SketchEl molfile

 27 29  0  0  0  0  0  0  0  0999 V2000
    8.5663   -6.2416    0.0000 C   0  0  0  0  0  0  0  0  0  0  0  0
    7.1456  -10.3661    0.0000 C   0  0  0  0  0  0  0  0  0  0  0  0
    7.8538   -9.1246    0.0000 N   0  0  0  0  0  0  0  0  0  0  0  0
    7.8580   -9.9495    0.0000 C   0  0  0  0  0  0  0  0  0  0  0  0
    7.1456  -11.1951    0.0000 C   0  0  0  0  0  0  0  0  0  0  0  0
    7.8538   -6.6540    0.0000 N   0  0  0  0  0  0  0  0  0  0  0  0
    8.5746  -10.3577    0.0000 C   0  0  0  0  0  0  0  0  0  0  0  0
    6.4290   -9.9536    0.0000 C   0  0  0  0  0  0  0  0  0  0  0  0
    6.4290  -11.6076    0.0000 C   0  0  0  0  0  0  0  0  0  0  0  0
    8.5663   -5.4166    0.0000 N   0  0  0  0  0  0  0  0  0  0  0  0
    9.2787   -9.9411    0.0000 N   0  0  0  0  0  0  0  0  0  0  0  0
    9.2828   -6.6540    0.0000 O   0  0  0  0  0  0  0  0  0  0  0  0
    8.5663   -8.7121    0.0000 C   0  0  0  0  0  0  0  0  0  0  0  0
    7.1373   -8.7204    0.0000 C   0  0  0  0  0  0  0  0  0  0  0  0
    9.2870  -11.5909    0.0000 N   0  0  0  0  0  0  0  0  0  0  0  0
    7.8538   -7.4789    0.0000 C   0  0  0  0  0  0  0  0  0  0  0  0
    7.1373   -7.8914    0.0000 C   0  0  0  0  0  0  0  0  0  0  0  0
    8.5663   -7.8914    0.0000 C   0  0  0  0  0  0  0  0  0  0  0  0
    5.7166  -11.1951    0.0000 C   0  0  0  0  0  0  0  0  0  0  0  0
    7.8622  -11.6076    0.0000 F   0  0  0  0  0  0  0  0  0  0  0  0
    5.7166  -10.3702    0.0000 C   0  0  0  0  0  0  0  0  0  0  0  0
    8.5746  -11.1826    0.0000 C   0  0  0  0  0  0  0  0  0  0  0  0
    5.0000  -11.6076    0.0000 F   0  0  0  0  0  0  0  0  0  0  0  0
    9.9953  -10.3452    0.0000 C   0  0  0  0  0  0  0  0  0  0  0  0
   10.0036  -11.1743    0.0000 C   0  0  0  0  0  0  0  0  0  0  0  0
    7.8538   -5.0084    0.0000 C   0  0  0  0  0  0  0  0  0  0  0  0
    9.2828   -5.0000    0.0000 C   0  0  0  0  0  0  0  0  0  0  0  0
  2  4  1  0  0  0  0
  3 14  1  0  0  0  0
  4  3  1  0  0  0  0
  5  2  1  0  0  0  0
  6  1  1  0  0  0  0
  7  4  1  0  0  0  0
  8  2  2  0  0  0  0
  9  5  2  0  0  0  0
 10  1  1  0  0  0  0
 11  7  1  0  0  0  0
 12  1  2  0  0  0  0
 13 18  1  0  0  0  0
 14 17  1  0  0  0  0
 15 22  1  0  0  0  0
 16  6  1  0  0  0  0
 17 16  1  0  0  0  0
 18 16  1  0  0  0  0
 19 21  2  0  0  0  0
 20  5  1  0  0  0  0
 21  8  1  0  0  0  0
 22  7  2  0  0  0  0
 23 19  1  0  0  0  0
 24 11  2  0  0  0  0
 25 15  2  0  0  0  0
 26 10  1  0  0  0  0
 27 10  1  0  0  0  0
 13  3  1  0  0  0  0
 24 25  1  0  0  0  0
  9 19  1  0  0  0  0
M  END
> <Molecule Name>
DNDI1434959

> <CDD Number>
CDD-1535444

> <IC50_uM>
> 1.0 (n=1)

$$$$

SketchEl molfile

 26 28  0  0  0  0  0  0  0  0999 V2000
    7.1452  -10.3610    0.0000 C   0  0  0  0  0  0  0  0  0  0  0  0
    7.8534   -9.1197    0.0000 N   0  0  0  0  0  0  0  0  0  0  0  0
    7.8575   -9.9444    0.0000 C   0  0  0  0  0  0  0  0  0  0  0  0
    7.1452  -11.1899    0.0000 C   0  0  0  0  0  0  0  0  0  0  0  0
    8.5740  -10.3527    0.0000 C   0  0  0  0  0  0  0  0  0  0  0  0
    6.4288   -9.9486    0.0000 C   0  0  0  0  0  0  0  0  0  0  0  0
    6.4288  -11.6023    0.0000 C   0  0  0  0  0  0  0  0  0  0  0  0
    8.5657   -6.2371    0.0000 C   0  0  0  0  0  0  0  0  0  0  0  0
    9.2780   -9.9361    0.0000 N   0  0  0  0  0  0  0  0  0  0  0  0
    7.8534   -6.6495    0.0000 N   0  0  0  0  0  0  0  0  0  0  0  0
    8.5657   -8.7073    0.0000 C   0  0  0  0  0  0  0  0  0  0  0  0
    7.1369   -8.7156    0.0000 C   0  0  0  0  0  0  0  0  0  0  0  0
    9.2863  -11.5856    0.0000 N   0  0  0  0  0  0  0  0  0  0  0  0
    9.2821   -6.6495    0.0000 O   0  0  0  0  0  0  0  0  0  0  0  0
    8.5657   -7.8867    0.0000 C   0  0  0  0  0  0  0  0  0  0  0  0
    7.1369   -7.8867    0.0000 C   0  0  0  0  0  0  0  0  0  0  0  0
    5.7165  -11.1899    0.0000 C   0  0  0  0  0  0  0  0  0  0  0  0
    7.8534   -7.4743    0.0000 C   0  0  0  0  0  0  0  0  0  0  0  0
    7.8617  -11.6023    0.0000 F   0  0  0  0  0  0  0  0  0  0  0  0
    5.7165  -10.3610    0.0000 C   0  0  0  0  0  0  0  0  0  0  0  0
    8.5740  -11.1774    0.0000 C   0  0  0  0  0  0  0  0  0  0  0  0
    5.0000  -11.6023    0.0000 F   0  0  0  0  0  0  0  0  0  0  0  0
    9.9944  -10.3402    0.0000 C   0  0  0  0  0  0  0  0  0  0  0  0
    8.5657   -5.4124    0.0000 C   0  0  0  0  0  0  0  0  0  0  0  0
   10.0028  -11.1691    0.0000 C   0  0  0  0  0  0  0  0  0  0  0  0
    9.2821   -5.0000    0.0000 C   0  0  0  0  0  0  0  0  0  0  0  0
  2  3  1  0  0  0  0
  3  1  1  0  0  0  0
  4  1  1  0  0  0  0
  5  3  1  0  0  0  0
  6  1  2  0  0  0  0
  7  4  2  0  0  0  0
  8 10  1  0  0  0  0
  9  5  1  0  0  0  0
 10 18  1  0  0  0  0
 11  2  1  0  0  0  0
 12  2  1  0  0  0  0
 13 21  1  0  0  0  0
 14  8  2  0  0  0  0
 15 11  1  0  0  0  0
 16 12  1  0  0  0  0
 17  7  1  0  0  0  0
 18 16  1  0  0  0  0
 19  4  1  0  0  0  0
 20  6  1  0  0  0  0
 21  5  2  0  0  0  0
 22 17  1  0  0  0  0
 23  9  2  0  0  0  0
 24  8  1  0  0  0  0
 25 13  2  0  0  0  0
 26 24  1  0  0  0  0
 17 20  2  0  0  0  0
 23 25  1  0  0  0  0
 18 15  1  0  0  0  0
M  END
> <Molecule Name>
DNDI1434960

> <CDD Number>
CDD-1535445

> <IC50_uM>
> 1.0 (n=1)

$$$$

SketchEl molfile

 25 27  0  0  0  0  0  0  0  0999 V2000
    7.1454   -9.9490    0.0000 C   0  0  0  0  0  0  0  0  0  0  0  0
    7.8536   -8.7076    0.0000 N   0  0  0  0  0  0  0  0  0  0  0  0
    7.8577   -9.5324    0.0000 C   0  0  0  0  0  0  0  0  0  0  0  0
    7.1454  -10.7780    0.0000 C   0  0  0  0  0  0  0  0  0  0  0  0
    8.5743   -9.9407    0.0000 C   0  0  0  0  0  0  0  0  0  0  0  0
    6.4289   -9.5366    0.0000 C   0  0  0  0  0  0  0  0  0  0  0  0
    6.4289  -11.1904    0.0000 C   0  0  0  0  0  0  0  0  0  0  0  0
    8.5659   -5.8248    0.0000 C   0  0  0  0  0  0  0  0  0  0  0  0
    9.2783   -9.5241    0.0000 N   0  0  0  0  0  0  0  0  0  0  0  0
    7.8536   -6.2373    0.0000 N   0  0  0  0  0  0  0  0  0  0  0  0
    8.5659   -8.2952    0.0000 C   0  0  0  0  0  0  0  0  0  0  0  0
    7.1371   -8.3035    0.0000 C   0  0  0  0  0  0  0  0  0  0  0  0
    9.2866  -11.1737    0.0000 N   0  0  0  0  0  0  0  0  0  0  0  0
    9.2824   -6.2373    0.0000 O   0  0  0  0  0  0  0  0  0  0  0  0
    8.5659   -7.4745    0.0000 C   0  0  0  0  0  0  0  0  0  0  0  0
    7.1371   -7.4745    0.0000 C   0  0  0  0  0  0  0  0  0  0  0  0
    5.7165  -10.7780    0.0000 C   0  0  0  0  0  0  0  0  0  0  0  0
    7.8536   -7.0621    0.0000 C   0  0  0  0  0  0  0  0  0  0  0  0
    7.8619  -11.1904    0.0000 F   0  0  0  0  0  0  0  0  0  0  0  0
    5.7165   -9.9490    0.0000 C   0  0  0  0  0  0  0  0  0  0  0  0
    8.5743  -10.7655    0.0000 C   0  0  0  0  0  0  0  0  0  0  0  0
    5.0000  -11.1904    0.0000 F   0  0  0  0  0  0  0  0  0  0  0  0
    9.9948   -9.9282    0.0000 C   0  0  0  0  0  0  0  0  0  0  0  0
   10.0031  -10.7572    0.0000 C   0  0  0  0  0  0  0  0  0  0  0  0
    8.5659   -5.0000    0.0000 C   0  0  0  0  0  0  0  0  0  0  0  0
  2  3  1  0  0  0  0
  3  1  1  0  0  0  0
  4  1  1  0  0  0  0
  5  3  1  0  0  0  0
  6  1  2  0  0  0  0
  7  4  2  0  0  0  0
  8 10  1  0  0  0  0
  9  5  1  0  0  0  0
 10 18  1  0  0  0  0
 11  2  1  0  0  0  0
 12  2  1  0  0  0  0
 13 21  1  0  0  0  0
 14  8  2  0  0  0  0
 15 11  1  0  0  0  0
 16 12  1  0  0  0  0
 17  7  1  0  0  0  0
 18 16  1  0  0  0  0
 19  4  1  0  0  0  0
 20  6  1  0  0  0  0
 21  5  2  0  0  0  0
 22 17  1  0  0  0  0
 23  9  2  0  0  0  0
 24 13  2  0  0  0  0
 25  8  1  0  0  0  0
 17 20  2  0  0  0  0
 23 24  1  0  0  0  0
 18 15  1  0  0  0  0
M  END
> <Molecule Name>
DNDI1434961

> <CDD Number>
CDD-1535446

> <IC50_uM>
> 1.0 (n=1)

$$$$

SketchEl molfile

 30 33  0  0  0  0  0  0  0  0999 V2000
    7.1453  -11.5984    0.0000 C   0  0  0  0  0  0  0  0  0  0  0  0
    7.8535  -10.3571    0.0000 N   0  0  0  0  0  0  0  0  0  0  0  0
    7.8576  -11.1819    0.0000 C   0  0  0  0  0  0  0  0  0  0  0  0
    8.5658   -7.4744    0.0000 C   0  0  0  0  0  0  0  0  0  0  0  0
    7.1453  -12.4274    0.0000 C   0  0  0  0  0  0  0  0  0  0  0  0
    7.8535   -7.8868    0.0000 N   0  0  0  0  0  0  0  0  0  0  0  0
    8.5741  -11.5901    0.0000 C   0  0  0  0  0  0  0  0  0  0  0  0
    6.4288  -11.1860    0.0000 C   0  0  0  0  0  0  0  0  0  0  0  0
    6.4288  -12.8398    0.0000 C   0  0  0  0  0  0  0  0  0  0  0  0
    9.2781  -11.1735    0.0000 N   0  0  0  0  0  0  0  0  0  0  0  0
    8.5658   -9.9447    0.0000 C   0  0  0  0  0  0  0  0  0  0  0  0
    7.1370   -9.9530    0.0000 C   0  0  0  0  0  0  0  0  0  0  0  0
    9.2823   -7.8868    0.0000 O   0  0  0  0  0  0  0  0  0  0  0  0
    8.5658   -6.6496    0.0000 C   0  0  0  0  0  0  0  0  0  0  0  0
    9.2865  -12.8231    0.0000 N   0  0  0  0  0  0  0  0  0  0  0  0
    7.8535   -8.7116    0.0000 C   0  0  0  0  0  0  0  0  0  0  0  0
    7.1370   -9.1240    0.0000 C   0  0  0  0  0  0  0  0  0  0  0  0
    8.5658   -9.1240    0.0000 C   0  0  0  0  0  0  0  0  0  0  0  0
    5.7165  -12.4274    0.0000 C   0  0  0  0  0  0  0  0  0  0  0  0
    7.8618  -12.8398    0.0000 F   0  0  0  0  0  0  0  0  0  0  0  0
    5.7165  -11.6026    0.0000 C   0  0  0  0  0  0  0  0  0  0  0  0
    8.5741  -12.4149    0.0000 C   0  0  0  0  0  0  0  0  0  0  0  0
    5.0000  -12.8398    0.0000 F   0  0  0  0  0  0  0  0  0  0  0  0
    9.9946  -11.5776    0.0000 C   0  0  0  0  0  0  0  0  0  0  0  0
   10.0030  -12.4066    0.0000 C   0  0  0  0  0  0  0  0  0  0  0  0
    9.2823   -6.2372    0.0000 C   0  0  0  0  0  0  0  0  0  0  0  0
    7.8535   -6.2414    0.0000 C   0  0  0  0  0  0  0  0  0  0  0  0
    7.8493   -5.4166    0.0000 C   0  0  0  0  0  0  0  0  0  0  0  0
    9.2823   -5.4124    0.0000 C   0  0  0  0  0  0  0  0  0  0  0  0
    8.5658   -5.0000    0.0000 C   0  0  0  0  0  0  0  0  0  0  0  0
  2  3  1  0  0  0  0
  3  1  1  0  0  0  0
  4  6  1  0  0  0  0
  5  1  1  0  0  0  0
  6 16  1  0  0  0  0
  7  3  1  0  0  0  0
  8  1  2  0  0  0  0
  9  5  2  0  0  0  0
 10  7  1  0  0  0  0
 11  2  1  0  0  0  0
 12  2  1  0  0  0  0
 13  4  2  0  0  0  0
 14  4  1  0  0  0  0
 15 22  1  0  0  0  0
 16 17  1  0  0  0  0
 17 12  1  0  0  0  0
 18 11  1  0  0  0  0
 19 21  2  0  0  0  0
 20  5  1  0  0  0  0
 21  8  1  0  0  0  0
 22  7  2  0  0  0  0
 23 19  1  0  0  0  0
 24 10  2  0  0  0  0
 25 15  2  0  0  0  0
 26 14  2  0  0  0  0
 27 14  1  0  0  0  0
 28 27  2  0  0  0  0
 29 26  1  0  0  0  0
 30 28  1  0  0  0  0
  9 19  1  0  0  0  0
 16 18  1  0  0  0  0
 24 25  1  0  0  0  0
 30 29  2  0  0  0  0
M  END
> <Molecule Name>
DNDI1434962

> <CDD Number>
CDD-1535447

> <IC50_uM>
0.55 (n=1)

$$$$

SketchEl molfile

 28 30  0  0  0  0  0  0  0  0999 V2000
    7.1464  -11.1850    0.0000 C   0  0  0  0  0  0  0  0  0  0  0  0
    7.8549   -9.9430    0.0000 N   0  0  0  0  0  0  0  0  0  0  0  0
    7.8591  -10.7682    0.0000 C   0  0  0  0  0  0  0  0  0  0  0  0
    7.1464  -12.0144    0.0000 C   0  0  0  0  0  0  0  0  0  0  0  0
    8.5676   -7.0589    0.0000 C   0  0  0  0  0  0  0  0  0  0  0  0
    8.5759  -11.1767    0.0000 C   0  0  0  0  0  0  0  0  0  0  0  0
    6.4295  -10.7724    0.0000 C   0  0  0  0  0  0  0  0  0  0  0  0
    6.4295  -12.4270    0.0000 C   0  0  0  0  0  0  0  0  0  0  0  0
    7.8549   -7.4715    0.0000 N   0  0  0  0  0  0  0  0  0  0  0  0
    9.2803  -10.7599    0.0000 N   0  0  0  0  0  0  0  0  0  0  0  0
    8.5676   -9.5304    0.0000 C   0  0  0  0  0  0  0  0  0  0  0  0
    7.1381   -9.5387    0.0000 C   0  0  0  0  0  0  0  0  0  0  0  0
    9.2845   -7.4715    0.0000 O   0  0  0  0  0  0  0  0  0  0  0  0
    9.2886  -12.4103    0.0000 N   0  0  0  0  0  0  0  0  0  0  0  0
    8.5676   -8.7093    0.0000 C   0  0  0  0  0  0  0  0  0  0  0  0
    7.1381   -8.7093    0.0000 C   0  0  0  0  0  0  0  0  0  0  0  0
    5.7169  -12.0144    0.0000 C   0  0  0  0  0  0  0  0  0  0  0  0
    7.8549   -8.2967    0.0000 C   0  0  0  0  0  0  0  0  0  0  0  0
    7.8633  -12.4270    0.0000 F   0  0  0  0  0  0  0  0  0  0  0  0
    8.5676   -6.2337    0.0000 C   0  0  0  0  0  0  0  0  0  0  0  0
    5.7169  -11.1892    0.0000 C   0  0  0  0  0  0  0  0  0  0  0  0
    8.5759  -12.0019    0.0000 C   0  0  0  0  0  0  0  0  0  0  0  0
    5.0000  -12.4270    0.0000 F   0  0  0  0  0  0  0  0  0  0  0  0
    9.9972  -11.1642    0.0000 C   0  0  0  0  0  0  0  0  0  0  0  0
   10.0055  -11.9936    0.0000 C   0  0  0  0  0  0  0  0  0  0  0  0
    7.8549   -5.8253    0.0000 C   0  0  0  0  0  0  0  0  0  0  0  0
    7.8549   -5.0000    0.0000 C   0  0  0  0  0  0  0  0  0  0  0  0
    7.1464   -6.2379    0.0000 C   0  0  0  0  0  0  0  0  0  0  0  0
  2  3  1  0  0  0  0
  3  1  1  0  0  0  0
  4  1  1  0  0  0  0
  5  9  1  0  0  0  0
  6  3  1  0  0  0  0
  7  1  2  0  0  0  0
  8  4  2  0  0  0  0
  9 18  1  0  0  0  0
 10  6  1  0  0  0  0
 11  2  1  0  0  0  0
 12  2  1  0  0  0  0
 13  5  2  0  0  0  0
 14 22  1  0  0  0  0
 15 11  1  0  0  0  0
 16 12  1  0  0  0  0
 17 21  2  0  0  0  0
 18 16  1  0  0  0  0
 19  4  1  0  0  0  0
 20  5  1  0  0  0  0
 21  7  1  0  0  0  0
 22  6  2  0  0  0  0
 23 17  1  0  0  0  0
 24 10  2  0  0  0  0
 25 14  2  0  0  0  0
 26 20  1  0  0  0  0
 27 26  1  0  0  0  0
 28 26  1  0  0  0  0
  8 17  1  0  0  0  0
 24 25  1  0  0  0  0
 18 15  1  0  0  0  0
M  END
> <Molecule Name>
DNDI1434963

> <CDD Number>
CDD-1535448

> <IC50_uM>
> 1.0 (n=1)

$$$$

SketchEl molfile

 30 33  0  0  0  0  0  0  0  0999 V2000
    7.1459  -11.5961    0.0000 C   0  0  0  0  0  0  0  0  0  0  0  0
    7.8543  -10.3544    0.0000 N   0  0  0  0  0  0  0  0  0  0  0  0
    7.8585  -11.1794    0.0000 C   0  0  0  0  0  0  0  0  0  0  0  0
    8.5668   -7.4709    0.0000 C   0  0  0  0  0  0  0  0  0  0  0  0
    7.1459  -12.4253    0.0000 C   0  0  0  0  0  0  0  0  0  0  0  0
    7.8543   -7.8834    0.0000 N   0  0  0  0  0  0  0  0  0  0  0  0
    8.5752  -11.5877    0.0000 C   0  0  0  0  0  0  0  0  0  0  0  0
    6.4292  -11.1836    0.0000 C   0  0  0  0  0  0  0  0  0  0  0  0
    6.4292  -12.8378    0.0000 C   0  0  0  0  0  0  0  0  0  0  0  0
    9.2794  -11.1711    0.0000 N   0  0  0  0  0  0  0  0  0  0  0  0
    8.5668   -9.9418    0.0000 C   0  0  0  0  0  0  0  0  0  0  0  0
    7.1376   -9.9502    0.0000 C   0  0  0  0  0  0  0  0  0  0  0  0
    9.2835   -7.8834    0.0000 O   0  0  0  0  0  0  0  0  0  0  0  0
    9.2877  -12.8211    0.0000 N   0  0  0  0  0  0  0  0  0  0  0  0
    8.5668   -6.6459    0.0000 C   0  0  0  0  0  0  0  0  0  0  0  0
    7.8543   -8.7085    0.0000 C   0  0  0  0  0  0  0  0  0  0  0  0
    7.1376   -9.1210    0.0000 C   0  0  0  0  0  0  0  0  0  0  0  0
    8.5668   -9.1210    0.0000 C   0  0  0  0  0  0  0  0  0  0  0  0
    5.7167  -12.4253    0.0000 C   0  0  0  0  0  0  0  0  0  0  0  0
    7.8626  -12.8378    0.0000 F   0  0  0  0  0  0  0  0  0  0  0  0
    5.7167  -11.5961    0.0000 C   0  0  0  0  0  0  0  0  0  0  0  0
    8.5752  -12.4128    0.0000 C   0  0  0  0  0  0  0  0  0  0  0  0
    5.0000  -12.8378    0.0000 F   0  0  0  0  0  0  0  0  0  0  0  0
    9.9961  -11.5752    0.0000 C   0  0  0  0  0  0  0  0  0  0  0  0
   10.0044  -12.4044    0.0000 C   0  0  0  0  0  0  0  0  0  0  0  0
    9.2835   -6.2375    0.0000 C   0  0  0  0  0  0  0  0  0  0  0  0
    7.8543   -6.2375    0.0000 C   0  0  0  0  0  0  0  0  0  0  0  0
    7.8585   -5.4125    0.0000 C   0  0  0  0  0  0  0  0  0  0  0  0
    9.2877   -5.4166    0.0000 C   0  0  0  0  0  0  0  0  0  0  0  0
    8.5752   -5.0000    0.0000 C   0  0  0  0  0  0  0  0  0  0  0  0
  2  3  1  0  0  0  0
  3  1  1  0  0  0  0
  4  6  1  0  0  0  0
  5  1  1  0  0  0  0
  6 16  1  0  0  0  0
  7  3  1  0  0  0  0
  8  1  2  0  0  0  0
  9  5  2  0  0  0  0
 10  7  1  0  0  0  0
 11  2  1  0  0  0  0
 12  2  1  0  0  0  0
 13  4  2  0  0  0  0
 14 22  1  0  0  0  0
 15  4  1  0  0  0  0
 16 17  1  0  0  0  0
 17 12  1  0  0  0  0
 18 11  1  0  0  0  0
 19 21  2  0  0  0  0
 20  5  1  0  0  0  0
 21  8  1  0  0  0  0
 22  7  2  0  0  0  0
 23 19  1  0  0  0  0
 24 10  2  0  0  0  0
 25 14  2  0  0  0  0
 26 15  1  0  0  0  0
 27 15  1  0  0  0  0
 28 27  1  0  0  0  0
 29 26  1  0  0  0  0
 30 28  1  0  0  0  0
  9 19  1  0  0  0  0
 16 18  1  0  0  0  0
 24 25  1  0  0  0  0
 30 29  1  0  0  0  0
M  END
> <Molecule Name>
DNDI1434964

> <CDD Number>
CDD-1535449

> <IC50_uM>
0.8 (n=1)

$$$$

SketchEl molfile

 27 30  0  0  0  0  0  0  0  0999 V2000
    7.1640  -10.6137    0.0000 C   0  0  0  0  0  0  0  0  0  0  0  0
    8.5968   -6.5252    0.0000 C   0  0  0  0  0  0  0  0  0  0  0  0
    7.8783   -9.3825    0.0000 N   0  0  0  0  0  0  0  0  0  0  0  0
    7.8825  -10.2019    0.0000 C   0  0  0  0  0  0  0  0  0  0  0  0
    8.5968   -5.7059    0.0000 C   0  0  0  0  0  0  0  0  0  0  0  0
    7.1640  -11.4372    0.0000 C   0  0  0  0  0  0  0  0  0  0  0  0
    9.0128   -5.0000    0.0000 C   0  0  0  0  0  0  0  0  0  0  0  0
    8.1808   -5.0000    0.0000 C   0  0  0  0  0  0  0  0  0  0  0  0
    7.8783   -6.9328    0.0000 N   0  0  0  0  0  0  0  0  0  0  0  0
    8.6052  -10.6052    0.0000 C   0  0  0  0  0  0  0  0  0  0  0  0
    6.4412  -10.2061    0.0000 C   0  0  0  0  0  0  0  0  0  0  0  0
    6.4412  -11.8448    0.0000 C   0  0  0  0  0  0  0  0  0  0  0  0
    9.3153  -10.1935    0.0000 N   0  0  0  0  0  0  0  0  0  0  0  0
    7.1556   -8.9833    0.0000 C   0  0  0  0  0  0  0  0  0  0  0  0
    8.5968   -8.9749    0.0000 C   0  0  0  0  0  0  0  0  0  0  0  0
    9.3195   -6.9328    0.0000 O   0  0  0  0  0  0  0  0  0  0  0  0
    9.3237  -11.8322    0.0000 N   0  0  0  0  0  0  0  0  0  0  0  0
    7.8783   -7.7522    0.0000 C   0  0  0  0  0  0  0  0  0  0  0  0
    7.1556   -8.1598    0.0000 C   0  0  0  0  0  0  0  0  0  0  0  0
    8.5968   -8.1598    0.0000 C   0  0  0  0  0  0  0  0  0  0  0  0
    5.7227  -11.4372    0.0000 C   0  0  0  0  0  0  0  0  0  0  0  0
    7.8867  -11.8448    0.0000 F   0  0  0  0  0  0  0  0  0  0  0  0
    5.7227  -10.6179    0.0000 C   0  0  0  0  0  0  0  0  0  0  0  0
    8.6052  -11.4246    0.0000 C   0  0  0  0  0  0  0  0  0  0  0  0
    5.0000  -11.8448    0.0000 F   0  0  0  0  0  0  0  0  0  0  0  0
   10.0380  -10.5968    0.0000 C   0  0  0  0  0  0  0  0  0  0  0  0
   10.0464  -11.4162    0.0000 C   0  0  0  0  0  0  0  0  0  0  0  0
  2  9  1  0  0  0  0
  3  4  1  0  0  0  0
  4  1  1  0  0  0  0
  5  2  1  0  0  0  0
  6  1  1  0  0  0  0
  7  5  1  0  0  0  0
  8  5  1  0  0  0  0
  9 18  1  0  0  0  0
 10  4  1  0  0  0  0
 11  1  2  0  0  0  0
 12  6  2  0  0  0  0
 13 10  1  0  0  0  0
 14  3  1  0  0  0  0
 15  3  1  0  0  0  0
 16  2  2  0  0  0  0
 17 24  1  0  0  0  0
 18 19  1  0  0  0  0
 19 14  1  0  0  0  0
 20 15  1  0  0  0  0
 21 23  2  0  0  0  0
 22  6  1  0  0  0  0
 23 11  1  0  0  0  0
 24 10  2  0  0  0  0
 25 21  1  0  0  0  0
 26 13  2  0  0  0  0
 27 17  2  0  0  0  0
 12 21  1  0  0  0  0
 18 20  1  0  0  0  0
 26 27  1  0  0  0  0
  7  8  1  0  0  0  0
M  END
> <Molecule Name>
DNDI1434965

> <CDD Number>
CDD-1535450

> <IC50_uM>
> 1.0 (n=1)

$$$$

SketchEl molfile

 30 32  0  0  0  0  0  0  0  0999 V2000
    7.8564   -7.4696    0.0000 C   0  0  0  0  0  0  0  0  0  0  0  0
    7.8567   -8.2938    0.0000 C   0  0  0  0  0  0  0  0  0  0  0  0
    8.5729   -8.7037    0.0000 C   0  0  0  0  0  0  0  0  0  0  0  0
    9.2880   -9.9363    0.0000 C   0  0  0  0  0  0  0  0  0  0  0  0
    7.1437   -8.7091    0.0000 C   0  0  0  0  0  0  0  0  0  0  0  0
    6.4281   -8.2998    0.0000 C   0  0  0  0  0  0  0  0  0  0  0  0
    7.1465   -9.5398    0.0000 C   0  0  0  0  0  0  0  0  0  0  0  0
    5.7150   -9.5402    0.0000 C   0  0  0  0  0  0  0  0  0  0  0  0
    8.5727   -9.5265    0.0000 C   0  0  0  0  0  0  0  0  0  0  0  0
    5.7161   -8.7127    0.0000 C   0  0  0  0  0  0  0  0  0  0  0  0
    6.4299   -9.9532    0.0000 C   0  0  0  0  0  0  0  0  0  0  0  0
   10.0021   -9.5210    0.0000 C   0  0  0  0  0  0  0  0  0  0  0  0
    9.2804   -8.2855    0.0000 C   0  0  0  0  0  0  0  0  0  0  0  0
    9.9963   -8.6915    0.0000 N   0  0  0  0  0  0  0  0  0  0  0  0
    5.0000   -9.9523    0.0000 Cl  0  0  0  0  0  0  0  0  0  0  0  0
    8.5682   -7.8750    0.0000 O   0  0  0  0  0  0  0  0  0  0  0  0
    8.5702   -7.0612    0.0000 C   0  0  0  0  0  0  0  0  0  0  0  0
    8.5702   -6.2378    0.0000 C   0  0  0  0  0  0  0  0  0  0  0  0
    7.8557   -5.8251    0.0000 C   0  0  0  0  0  0  0  0  0  0  0  0
    7.1397   -6.2420    0.0000 C   0  0  0  0  0  0  0  0  0  0  0  0
    7.1432   -7.0641    0.0000 C   0  0  0  0  0  0  0  0  0  0  0  0
    9.2848   -5.8252    0.0000 C   0  0  0  0  0  0  0  0  0  0  0  0
    9.9994   -6.2378    0.0000 N   0  0  0  0  0  0  0  0  0  0  0  0
    9.2849   -5.0000    0.0000 O   0  0  0  0  0  0  0  0  0  0  0  0
   10.7141   -5.8253    0.0000 C   0  0  0  0  0  0  0  0  0  0  0  0
    9.9994   -7.0630    0.0000 C   0  0  0  0  0  0  0  0  0  0  0  0
   11.4287   -6.2379    0.0000 C   0  0  0  0  0  0  0  0  0  0  0  0
   10.7141   -5.0001    0.0000 C   0  0  0  0  0  0  0  0  0  0  0  0
    9.2848   -7.4756    0.0000 C   0  0  0  0  0  0  0  0  0  0  0  0
   10.7140   -7.4756    0.0000 C   0  0  0  0  0  0  0  0  0  0  0  0
  2  1  1  0  0  0  0
  8 15  1  0  0  0  0
  5  2  1  0  0  0  0
 14 13  2  0  0  0  0
 13  3  1  0  0  0  0
 11  7  2  0  0  0  0
  2  3  1  0  0  0  0
  2 16  1  0  0  0  0
  7  5  1  0  0  0  0
  1 17  2  0  0  0  0
  8 11  1  0  0  0  0
 17 18  1  0  0  0  0
  3  9  2  0  0  0  0
 18 19  2  0  0  0  0
  5  6  2  0  0  0  0
 19 20  1  0  0  0  0
  9  4  1  0  0  0  0
 20 21  2  0  0  0  0
 21  1  1  0  0  0  0
  6 10  1  0  0  0  0
 18 22  1  0  0  0  0
  4 12  2  0  0  0  0
 22 23  1  0  0  0  0
 10  8  2  0  0  0  0
 22 24  2  0  0  0  0
 12 14  1  0  0  0  0
 23 25  1  0  0  0  0
 23 26  1  0  0  0  0
 25 27  1  0  0  0  0
 25 28  1  0  0  0  0
 26 29  1  0  0  0  0
 26 30  1  0  0  0  0
M  END
> <Molecule Name>
DNDI1435750

> <CDD Number>
CDD-1535451

> <IC50_uM>
0.014 (n=1)

$$$$

SketchEl molfile

 28 30  0  0  0  0  0  0  0  0999 V2000
    7.8564   -7.4696    0.0000 C   0  0  0  0  0  0  0  0  0  0  0  0
    7.8568   -8.2938    0.0000 C   0  0  0  0  0  0  0  0  0  0  0  0
    8.5730   -8.7037    0.0000 C   0  0  0  0  0  0  0  0  0  0  0  0
    9.2881   -9.9364    0.0000 C   0  0  0  0  0  0  0  0  0  0  0  0
    7.1437   -8.7091    0.0000 C   0  0  0  0  0  0  0  0  0  0  0  0
    6.4281   -8.2999    0.0000 C   0  0  0  0  0  0  0  0  0  0  0  0
    7.1466   -9.5399    0.0000 C   0  0  0  0  0  0  0  0  0  0  0  0
    5.7150   -9.5403    0.0000 C   0  0  0  0  0  0  0  0  0  0  0  0
    8.5727   -9.5266    0.0000 C   0  0  0  0  0  0  0  0  0  0  0  0
    5.7161   -8.7128    0.0000 C   0  0  0  0  0  0  0  0  0  0  0  0
    6.4299   -9.9533    0.0000 C   0  0  0  0  0  0  0  0  0  0  0  0
   10.0021   -9.5211    0.0000 C   0  0  0  0  0  0  0  0  0  0  0  0
    9.2804   -8.2855    0.0000 C   0  0  0  0  0  0  0  0  0  0  0  0
    9.9963   -8.6916    0.0000 N   0  0  0  0  0  0  0  0  0  0  0  0
    5.0000   -9.9524    0.0000 Cl  0  0  0  0  0  0  0  0  0  0  0  0
    8.5682   -7.8751    0.0000 O   0  0  0  0  0  0  0  0  0  0  0  0
    8.5702   -7.0613    0.0000 C   0  0  0  0  0  0  0  0  0  0  0  0
    8.5702   -6.2378    0.0000 C   0  0  0  0  0  0  0  0  0  0  0  0
    7.8557   -5.8252    0.0000 C   0  0  0  0  0  0  0  0  0  0  0  0
    7.1397   -6.2420    0.0000 C   0  0  0  0  0  0  0  0  0  0  0  0
    7.1433   -7.0641    0.0000 C   0  0  0  0  0  0  0  0  0  0  0  0
    9.2849   -5.8252    0.0000 C   0  0  0  0  0  0  0  0  0  0  0  0
    9.9995   -6.2379    0.0000 N   0  0  0  0  0  0  0  0  0  0  0  0
    9.2849   -5.0000    0.0000 O   0  0  0  0  0  0  0  0  0  0  0  0
   10.7142   -5.8253    0.0000 C   0  0  0  0  0  0  0  0  0  0  0  0
   11.4288   -6.2379    0.0000 C   0  0  0  0  0  0  0  0  0  0  0  0
   11.4288   -7.0631    0.0000 C   0  0  0  0  0  0  0  0  0  0  0  0
   12.1434   -5.8254    0.0000 C   0  0  0  0  0  0  0  0  0  0  0  0
  2  1  1  0  0  0  0
  8 15  1  0  0  0  0
  5  2  1  0  0  0  0
 14 13  2  0  0  0  0
 13  3  1  0  0  0  0
 11  7  2  0  0  0  0
  2  3  1  0  0  0  0
  2 16  1  0  0  0  0
  7  5  1  0  0  0  0
  1 17  2  0  0  0  0
  8 11  1  0  0  0  0
 17 18  1  0  0  0  0
  3  9  2  0  0  0  0
 18 19  2  0  0  0  0
  5  6  2  0  0  0  0
 19 20  1  0  0  0  0
  9  4  1  0  0  0  0
 20 21  2  0  0  0  0
 21  1  1  0  0  0  0
  6 10  1  0  0  0  0
 18 22  1  0  0  0  0
  4 12  2  0  0  0  0
 22 23  1  0  0  0  0
 10  8  2  0  0  0  0
 22 24  2  0  0  0  0
 12 14  1  0  0  0  0
 23 25  1  0  0  0  0
 25 26  1  0  0  0  0
 26 27  1  0  0  0  0
 26 28  1  0  0  0  0
M  END
> <Molecule Name>
DNDI1435751

> <CDD Number>
CDD-1535452

> <IC50_uM>
0.098 (n=1)

$$$$

SketchEl molfile

 29 32  0  0  0  0  0  0  0  0999 V2000
    7.8566   -7.6391    0.0000 C   0  0  0  0  0  0  0  0  0  0  0  0
    7.8570   -8.4634    0.0000 C   0  0  0  0  0  0  0  0  0  0  0  0
    8.5732   -8.8734    0.0000 C   0  0  0  0  0  0  0  0  0  0  0  0
    9.2884  -10.1061    0.0000 C   0  0  0  0  0  0  0  0  0  0  0  0
    7.1438   -8.8787    0.0000 C   0  0  0  0  0  0  0  0  0  0  0  0
    6.4282   -8.4695    0.0000 C   0  0  0  0  0  0  0  0  0  0  0  0
    7.1467   -9.7095    0.0000 C   0  0  0  0  0  0  0  0  0  0  0  0
    5.7150   -9.7100    0.0000 C   0  0  0  0  0  0  0  0  0  0  0  0
    8.5730   -9.6963    0.0000 C   0  0  0  0  0  0  0  0  0  0  0  0
    5.7162   -8.8824    0.0000 C   0  0  0  0  0  0  0  0  0  0  0  0
    6.4300  -10.1230    0.0000 C   0  0  0  0  0  0  0  0  0  0  0  0
   10.0025   -9.6907    0.0000 C   0  0  0  0  0  0  0  0  0  0  0  0
    9.2807   -8.4551    0.0000 C   0  0  0  0  0  0  0  0  0  0  0  0
    9.9967   -8.8612    0.0000 N   0  0  0  0  0  0  0  0  0  0  0  0
    5.0000  -10.1221    0.0000 Cl  0  0  0  0  0  0  0  0  0  0  0  0
    8.5685   -8.0447    0.0000 O   0  0  0  0  0  0  0  0  0  0  0  0
    8.5705   -7.2308    0.0000 C   0  0  0  0  0  0  0  0  0  0  0  0
    8.5705   -6.4072    0.0000 C   0  0  0  0  0  0  0  0  0  0  0  0
    7.8559   -5.9946    0.0000 C   0  0  0  0  0  0  0  0  0  0  0  0
    7.1399   -6.4115    0.0000 C   0  0  0  0  0  0  0  0  0  0  0  0
    7.1434   -7.2336    0.0000 C   0  0  0  0  0  0  0  0  0  0  0  0
    9.2852   -5.9946    0.0000 C   0  0  0  0  0  0  0  0  0  0  0  0
    9.9999   -6.4073    0.0000 N   0  0  0  0  0  0  0  0  0  0  0  0
    9.2852   -5.1694    0.0000 O   0  0  0  0  0  0  0  0  0  0  0  0
   10.7146   -5.9947    0.0000 C   0  0  0  0  0  0  0  0  0  0  0  0
   11.4649   -6.3280    0.0000 C   0  0  0  0  0  0  0  0  0  0  0  0
   12.0171   -5.7148    0.0000 C   0  0  0  0  0  0  0  0  0  0  0  0
   11.6045   -5.0000    0.0000 C   0  0  0  0  0  0  0  0  0  0  0  0
   10.7973   -5.1717    0.0000 C   0  0  0  0  0  0  0  0  0  0  0  0
  2  1  1  0  0  0  0
  8 15  1  0  0  0  0
  5  2  1  0  0  0  0
 14 13  2  0  0  0  0
 13  3  1  0  0  0  0
 11  7  2  0  0  0  0
  2  3  1  0  0  0  0
  2 16  1  0  0  0  0
  7  5  1  0  0  0  0
  1 17  2  0  0  0  0
  8 11  1  0  0  0  0
 17 18  1  0  0  0  0
  3  9  2  0  0  0  0
 18 19  2  0  0  0  0
  5  6  2  0  0  0  0
 19 20  1  0  0  0  0
  9  4  1  0  0  0  0
 20 21  2  0  0  0  0
 21  1  1  0  0  0  0
  6 10  1  0  0  0  0
 18 22  1  0  0  0  0
  4 12  2  0  0  0  0
 22 23  1  0  0  0  0
 10  8  2  0  0  0  0
 22 24  2  0  0  0  0
 12 14  1  0  0  0  0
 23 25  1  0  0  0  0
 25 26  1  0  0  0  0
 26 27  1  0  0  0  0
 27 28  1  0  0  0  0
 28 29  1  0  0  0  0
 29 25  1  0  0  0  0
M  END
> <Molecule Name>
DNDI1435752

> <CDD Number>
CDD-1535453

> <IC50_uM>
0.15 (n=1)

$$$$

SketchEl molfile

 30 33  0  0  0  0  0  0  0  0999 V2000
    7.8568   -7.8761    0.0000 C   0  0  0  0  0  0  0  0  0  0  0  0
    7.8571   -8.7004    0.0000 C   0  0  0  0  0  0  0  0  0  0  0  0
    8.5734   -9.1104    0.0000 C   0  0  0  0  0  0  0  0  0  0  0  0
    9.2886  -10.3432    0.0000 C   0  0  0  0  0  0  0  0  0  0  0  0
    7.1440   -9.1158    0.0000 C   0  0  0  0  0  0  0  0  0  0  0  0
    6.4283   -8.7065    0.0000 C   0  0  0  0  0  0  0  0  0  0  0  0
    7.1468   -9.9466    0.0000 C   0  0  0  0  0  0  0  0  0  0  0  0
    5.7151   -9.9471    0.0000 C   0  0  0  0  0  0  0  0  0  0  0  0
    8.5731   -9.9333    0.0000 C   0  0  0  0  0  0  0  0  0  0  0  0
    5.7162   -9.1194    0.0000 C   0  0  0  0  0  0  0  0  0  0  0  0
    6.4301  -10.3601    0.0000 C   0  0  0  0  0  0  0  0  0  0  0  0
   10.0027   -9.9278    0.0000 C   0  0  0  0  0  0  0  0  0  0  0  0
    9.2810   -8.6921    0.0000 C   0  0  0  0  0  0  0  0  0  0  0  0
    9.9970   -9.0983    0.0000 N   0  0  0  0  0  0  0  0  0  0  0  0
    5.0000  -10.3592    0.0000 Cl  0  0  0  0  0  0  0  0  0  0  0  0
    8.5687   -8.2817    0.0000 O   0  0  0  0  0  0  0  0  0  0  0  0
    8.5707   -7.4677    0.0000 C   0  0  0  0  0  0  0  0  0  0  0  0
    8.5707   -6.6441    0.0000 C   0  0  0  0  0  0  0  0  0  0  0  0
    7.8561   -6.2315    0.0000 C   0  0  0  0  0  0  0  0  0  0  0  0
    7.1400   -6.6484    0.0000 C   0  0  0  0  0  0  0  0  0  0  0  0
    7.1435   -7.4706    0.0000 C   0  0  0  0  0  0  0  0  0  0  0  0
    9.2854   -6.2315    0.0000 C   0  0  0  0  0  0  0  0  0  0  0  0
   10.0001   -6.6442    0.0000 N   0  0  0  0  0  0  0  0  0  0  0  0
    9.2854   -5.4062    0.0000 O   0  0  0  0  0  0  0  0  0  0  0  0
   10.7149   -6.2316    0.0000 C   0  0  0  0  0  0  0  0  0  0  0  0
   11.4267   -6.6497    0.0000 C   0  0  0  0  0  0  0  0  0  0  0  0
   12.1393   -6.2406    0.0000 C   0  0  0  0  0  0  0  0  0  0  0  0
   12.1436   -5.4149    0.0000 C   0  0  0  0  0  0  0  0  0  0  0  0
   11.4291   -5.0000    0.0000 C   0  0  0  0  0  0  0  0  0  0  0  0
   10.7102   -5.4108    0.0000 C   0  0  0  0  0  0  0  0  0  0  0  0
  2  1  1  0  0  0  0
  8 15  1  0  0  0  0
  5  2  1  0  0  0  0
 14 13  2  0  0  0  0
 13  3  1  0  0  0  0
 11  7  2  0  0  0  0
  2  3  1  0  0  0  0
  2 16  1  0  0  0  0
  7  5  1  0  0  0  0
  1 17  2  0  0  0  0
  8 11  1  0  0  0  0
 17 18  1  0  0  0  0
  3  9  2  0  0  0  0
 18 19  2  0  0  0  0
  5  6  2  0  0  0  0
 19 20  1  0  0  0  0
  9  4  1  0  0  0  0
 20 21  2  0  0  0  0
 21  1  1  0  0  0  0
  6 10  1  0  0  0  0
 18 22  1  0  0  0  0
  4 12  2  0  0  0  0
 22 23  1  0  0  0  0
 10  8  2  0  0  0  0
 22 24  2  0  0  0  0
 12 14  1  0  0  0  0
 23 25  1  0  0  0  0
 25 26  1  0  0  0  0
 25 30  1  0  0  0  0
 26 27  1  0  0  0  0
 27 28  1  0  0  0  0
 28 29  1  0  0  0  0
 29 30  1  0  0  0  0
M  END
> <Molecule Name>
DNDI1435753

> <CDD Number>
CDD-1535454

> <IC50_uM>
0.06 (n=1)

$$$$

SketchEl molfile

 25 27  0  0  0  0  0  0  0  0999 V2000
    7.8565   -7.4697    0.0000 C   0  0  0  0  0  0  0  0  0  0  0  0
    7.8569   -8.2939    0.0000 C   0  0  0  0  0  0  0  0  0  0  0  0
    8.5731   -8.7038    0.0000 C   0  0  0  0  0  0  0  0  0  0  0  0
    9.2882   -9.9365    0.0000 C   0  0  0  0  0  0  0  0  0  0  0  0
    7.1438   -8.7092    0.0000 C   0  0  0  0  0  0  0  0  0  0  0  0
    6.4282   -8.3000    0.0000 C   0  0  0  0  0  0  0  0  0  0  0  0
    7.1466   -9.5399    0.0000 C   0  0  0  0  0  0  0  0  0  0  0  0
    5.7150   -9.5404    0.0000 C   0  0  0  0  0  0  0  0  0  0  0  0
    8.5728   -9.5267    0.0000 C   0  0  0  0  0  0  0  0  0  0  0  0
    5.7161   -8.7128    0.0000 C   0  0  0  0  0  0  0  0  0  0  0  0
    6.4300   -9.9534    0.0000 C   0  0  0  0  0  0  0  0  0  0  0  0
   10.0023   -9.5212    0.0000 C   0  0  0  0  0  0  0  0  0  0  0  0
    9.2805   -8.2856    0.0000 C   0  0  0  0  0  0  0  0  0  0  0  0
    9.9965   -8.6917    0.0000 N   0  0  0  0  0  0  0  0  0  0  0  0
    5.0000   -9.9525    0.0000 Cl  0  0  0  0  0  0  0  0  0  0  0  0
    8.5683   -7.8752    0.0000 O   0  0  0  0  0  0  0  0  0  0  0  0
    8.5703   -7.0613    0.0000 C   0  0  0  0  0  0  0  0  0  0  0  0
    8.5703   -6.2378    0.0000 C   0  0  0  0  0  0  0  0  0  0  0  0
    7.8558   -5.8252    0.0000 C   0  0  0  0  0  0  0  0  0  0  0  0
    7.1398   -6.2420    0.0000 C   0  0  0  0  0  0  0  0  0  0  0  0
    7.1433   -7.0642    0.0000 C   0  0  0  0  0  0  0  0  0  0  0  0
    9.2850   -5.8252    0.0000 C   0  0  0  0  0  0  0  0  0  0  0  0
    9.9996   -6.2379    0.0000 N   0  0  0  0  0  0  0  0  0  0  0  0
    9.2850   -5.0000    0.0000 O   0  0  0  0  0  0  0  0  0  0  0  0
   10.7143   -5.8253    0.0000 C   0  0  0  0  0  0  0  0  0  0  0  0
  2  1  1  0  0  0  0
  8 15  1  0  0  0  0
  5  2  1  0  0  0  0
 14 13  2  0  0  0  0
 13  3  1  0  0  0  0
 11  7  2  0  0  0  0
  2  3  1  0  0  0  0
  2 16  1  0  0  0  0
  7  5  1  0  0  0  0
  1 17  2  0  0  0  0
  8 11  1  0  0  0  0
 17 18  1  0  0  0  0
  3  9  2  0  0  0  0
 18 19  2  0  0  0  0
  5  6  2  0  0  0  0
 19 20  1  0  0  0  0
  9  4  1  0  0  0  0
 20 21  2  0  0  0  0
 21  1  1  0  0  0  0
  6 10  1  0  0  0  0
 18 22  1  0  0  0  0
  4 12  2  0  0  0  0
 22 23  1  0  0  0  0
 10  8  2  0  0  0  0
 22 24  2  0  0  0  0
 12 14  1  0  0  0  0
 23 25  1  0  0  0  0
M  END
> <Molecule Name>
DNDI1435754

> <CDD Number>
CDD-1535455

> <IC50_uM>
0.59 (n=1)

$$$$

SketchEl molfile

 27 29  0  0  0  0  0  0  0  0999 V2000
    7.8564   -7.4696    0.0000 C   0  0  0  0  0  0  0  0  0  0  0  0
    7.8568   -8.2938    0.0000 C   0  0  0  0  0  0  0  0  0  0  0  0
    8.5730   -8.7037    0.0000 C   0  0  0  0  0  0  0  0  0  0  0  0
    9.2881   -9.9364    0.0000 C   0  0  0  0  0  0  0  0  0  0  0  0
    7.1437   -8.7091    0.0000 C   0  0  0  0  0  0  0  0  0  0  0  0
    6.4281   -8.2999    0.0000 C   0  0  0  0  0  0  0  0  0  0  0  0
    7.1466   -9.5398    0.0000 C   0  0  0  0  0  0  0  0  0  0  0  0
    5.7150   -9.5403    0.0000 C   0  0  0  0  0  0  0  0  0  0  0  0
    8.5727   -9.5266    0.0000 C   0  0  0  0  0  0  0  0  0  0  0  0
    5.7161   -8.7128    0.0000 C   0  0  0  0  0  0  0  0  0  0  0  0
    6.4300   -9.9533    0.0000 C   0  0  0  0  0  0  0  0  0  0  0  0
   10.0022   -9.5211    0.0000 C   0  0  0  0  0  0  0  0  0  0  0  0
    9.2805   -8.2855    0.0000 C   0  0  0  0  0  0  0  0  0  0  0  0
    9.9964   -8.6916    0.0000 N   0  0  0  0  0  0  0  0  0  0  0  0
    5.0000   -9.9524    0.0000 Cl  0  0  0  0  0  0  0  0  0  0  0  0
    8.5683   -7.8751    0.0000 O   0  0  0  0  0  0  0  0  0  0  0  0
    8.5703   -7.0612    0.0000 C   0  0  0  0  0  0  0  0  0  0  0  0
    8.5703   -6.2378    0.0000 C   0  0  0  0  0  0  0  0  0  0  0  0
    7.8557   -5.8251    0.0000 C   0  0  0  0  0  0  0  0  0  0  0  0
    7.1397   -6.2420    0.0000 C   0  0  0  0  0  0  0  0  0  0  0  0
    7.1433   -7.0641    0.0000 C   0  0  0  0  0  0  0  0  0  0  0  0
    9.2849   -5.8252    0.0000 C   0  0  0  0  0  0  0  0  0  0  0  0
    9.9995   -6.2378    0.0000 N   0  0  0  0  0  0  0  0  0  0  0  0
    9.2850   -5.0000    0.0000 O   0  0  0  0  0  0  0  0  0  0  0  0
   10.7142   -5.8253    0.0000 O   0  0  0  0  0  0  0  0  0  0  0  0
    9.9995   -7.0630    0.0000 C   0  0  0  0  0  0  0  0  0  0  0  0
   11.4288   -6.2379    0.0000 C   0  0  0  0  0  0  0  0  0  0  0  0
  2  1  1  0  0  0  0
  8 15  1  0  0  0  0
  5  2  1  0  0  0  0
 14 13  2  0  0  0  0
 13  3  1  0  0  0  0
 11  7  2  0  0  0  0
  2  3  1  0  0  0  0
  2 16  1  0  0  0  0
  7  5  1  0  0  0  0
  1 17  2  0  0  0  0
  8 11  1  0  0  0  0
 17 18  1  0  0  0  0
  3  9  2  0  0  0  0
 18 19  2  0  0  0  0
  5  6  2  0  0  0  0
 19 20  1  0  0  0  0
  9  4  1  0  0  0  0
 20 21  2  0  0  0  0
 21  1  1  0  0  0  0
  6 10  1  0  0  0  0
 18 22  1  0  0  0  0
  4 12  2  0  0  0  0
 22 23  1  0  0  0  0
 10  8  2  0  0  0  0
 22 24  2  0  0  0  0
 12 14  1  0  0  0  0
 23 25  1  0  0  0  0
 23 26  1  0  0  0  0
 25 27  1  0  0  0  0
M  END
> <Molecule Name>
DNDI1435755

> <CDD Number>
CDD-1535456

> <IC50_uM>
0.038 (n=1)

$$$$

SketchEl molfile

 29 32  0  0  0  0  0  0  0  0999 V2000
    7.8566   -7.4698    0.0000 C   0  0  0  0  0  0  0  0  0  0  0  0
    7.8570   -8.2940    0.0000 C   0  0  0  0  0  0  0  0  0  0  0  0
    8.5732   -8.7040    0.0000 C   0  0  0  0  0  0  0  0  0  0  0  0
    9.2883   -9.9367    0.0000 C   0  0  0  0  0  0  0  0  0  0  0  0
    7.1438   -8.7094    0.0000 C   0  0  0  0  0  0  0  0  0  0  0  0
    6.4282   -8.3001    0.0000 C   0  0  0  0  0  0  0  0  0  0  0  0
    7.1467   -9.5401    0.0000 C   0  0  0  0  0  0  0  0  0  0  0  0
    5.7150   -9.5406    0.0000 C   0  0  0  0  0  0  0  0  0  0  0  0
    8.5729   -9.5269    0.0000 C   0  0  0  0  0  0  0  0  0  0  0  0
    5.7162   -8.7130    0.0000 C   0  0  0  0  0  0  0  0  0  0  0  0
    6.4300   -9.9536    0.0000 C   0  0  0  0  0  0  0  0  0  0  0  0
   10.0024   -9.5213    0.0000 C   0  0  0  0  0  0  0  0  0  0  0  0
    9.2807   -8.2857    0.0000 C   0  0  0  0  0  0  0  0  0  0  0  0
    9.9967   -8.6918    0.0000 N   0  0  0  0  0  0  0  0  0  0  0  0
    8.5684   -7.8753    0.0000 O   0  0  0  0  0  0  0  0  0  0  0  0
    8.5705   -7.0614    0.0000 C   0  0  0  0  0  0  0  0  0  0  0  0
    8.5704   -6.2379    0.0000 C   0  0  0  0  0  0  0  0  0  0  0  0
    7.8559   -5.8252    0.0000 C   0  0  0  0  0  0  0  0  0  0  0  0
    7.1399   -6.2421    0.0000 C   0  0  0  0  0  0  0  0  0  0  0  0
    7.1434   -7.0643    0.0000 C   0  0  0  0  0  0  0  0  0  0  0  0
    9.2851   -5.8253    0.0000 C   0  0  0  0  0  0  0  0  0  0  0  0
    9.9998   -6.2379    0.0000 N   0  0  0  0  0  0  0  0  0  0  0  0
    9.2852   -5.0000    0.0000 O   0  0  0  0  0  0  0  0  0  0  0  0
    9.9959   -7.0634    0.0000 C   0  0  0  0  0  0  0  0  0  0  0  0
   10.7064   -7.4760    0.0000 C   0  0  0  0  0  0  0  0  0  0  0  0
   11.4235   -7.0669    0.0000 O   0  0  0  0  0  0  0  0  0  0  0  0
   11.4256   -6.2407    0.0000 C   0  0  0  0  0  0  0  0  0  0  0  0
   10.7104   -5.8236    0.0000 C   0  0  0  0  0  0  0  0  0  0  0  0
    5.0000   -9.9527    0.0000 Cl  0  0  0  0  0  0  0  0  0  0  0  0
  2  1  1  0  0  0  0
  5  2  1  0  0  0  0
 14 13  2  0  0  0  0
 13  3  1  0  0  0  0
 11  7  2  0  0  0  0
  2  3  1  0  0  0  0
  2 15  1  0  0  0  0
  7  5  1  0  0  0  0
  1 16  2  0  0  0  0
  8 11  1  0  0  0  0
 16 17  1  0  0  0  0
  3  9  2  0  0  0  0
 17 18  2  0  0  0  0
  5  6  2  0  0  0  0
 18 19  1  0  0  0  0
  9  4  1  0  0  0  0
 19 20  2  0  0  0  0
 20  1  1  0  0  0  0
  6 10  1  0  0  0  0
 17 21  1  0  0  0  0
  4 12  2  0  0  0  0
 21 22  1  0  0  0  0
 10  8  2  0  0  0  0
 21 23  2  0  0  0  0
 12 14  1  0  0  0  0
 22 24  1  0  0  0  0
 22 28  1  0  0  0  0
 24 25  1  0  0  0  0
 25 26  1  0  0  0  0
 26 27  1  0  0  0  0
 27 28  1  0  0  0  0
  8 29  1  0  0  0  0
M  END
> <Molecule Name>
DNDI1435756

> <CDD Number>
CDD-1535457

> <IC50_uM>
0.034 (n=1)

$$$$

SketchEl molfile

 32 35  0  0  0  0  0  0  0  0999 V2000
    7.8566   -7.8697    0.0000 C   0  0  0  0  0  0  0  0  0  0  0  0
    7.8570   -8.6940    0.0000 C   0  0  0  0  0  0  0  0  0  0  0  0
    8.5732   -9.1040    0.0000 C   0  0  0  0  0  0  0  0  0  0  0  0
    9.2884  -10.3367    0.0000 C   0  0  0  0  0  0  0  0  0  0  0  0
    7.1438   -9.1093    0.0000 C   0  0  0  0  0  0  0  0  0  0  0  0
    6.4282   -8.7001    0.0000 C   0  0  0  0  0  0  0  0  0  0  0  0
    7.1467   -9.9401    0.0000 C   0  0  0  0  0  0  0  0  0  0  0  0
    5.7150   -9.9406    0.0000 C   0  0  0  0  0  0  0  0  0  0  0  0
    8.5730   -9.9269    0.0000 C   0  0  0  0  0  0  0  0  0  0  0  0
    5.7162   -9.1130    0.0000 C   0  0  0  0  0  0  0  0  0  0  0  0
    6.4300  -10.3536    0.0000 C   0  0  0  0  0  0  0  0  0  0  0  0
   10.0025   -9.9213    0.0000 C   0  0  0  0  0  0  0  0  0  0  0  0
    9.2807   -8.6857    0.0000 C   0  0  0  0  0  0  0  0  0  0  0  0
    9.9967   -9.0918    0.0000 N   0  0  0  0  0  0  0  0  0  0  0  0
    8.5685   -8.2753    0.0000 O   0  0  0  0  0  0  0  0  0  0  0  0
    8.5705   -7.4614    0.0000 C   0  0  0  0  0  0  0  0  0  0  0  0
    8.5705   -6.6378    0.0000 C   0  0  0  0  0  0  0  0  0  0  0  0
    7.8559   -6.2252    0.0000 C   0  0  0  0  0  0  0  0  0  0  0  0
    7.1399   -6.6421    0.0000 C   0  0  0  0  0  0  0  0  0  0  0  0
    7.1434   -7.4642    0.0000 C   0  0  0  0  0  0  0  0  0  0  0  0
    9.2852   -6.2253    0.0000 C   0  0  0  0  0  0  0  0  0  0  0  0
    9.9998   -6.6379    0.0000 N   0  0  0  0  0  0  0  0  0  0  0  0
    9.2852   -5.4000    0.0000 O   0  0  0  0  0  0  0  0  0  0  0  0
   11.4256   -6.6407    0.0000 C   0  0  0  0  0  0  0  0  0  0  0  0
   10.7105   -6.2236    0.0000 C   0  0  0  0  0  0  0  0  0  0  0  0
    5.0000  -10.3527    0.0000 Cl  0  0  0  0  0  0  0  0  0  0  0  0
   12.1421   -6.2312    0.0000 N   0  0  0  0  0  0  0  0  0  0  0  0
   12.8515   -6.6495    0.0000 C   0  0  0  0  0  0  0  0  0  0  0  0
   13.5659   -6.2436    0.0000 C   0  0  0  0  0  0  0  0  0  0  0  0
   13.5738   -5.4180    0.0000 O   0  0  0  0  0  0  0  0  0  0  0  0
   12.8612   -5.0000    0.0000 C   0  0  0  0  0  0  0  0  0  0  0  0
   12.1406   -5.4076    0.0000 C   0  0  0  0  0  0  0  0  0  0  0  0
  2  1  1  0  0  0  0
  5  2  1  0  0  0  0
 14 13  2  0  0  0  0
 13  3  1  0  0  0  0
 11  7  2  0  0  0  0
  2  3  1  0  0  0  0
  2 15  1  0  0  0  0
  7  5  1  0  0  0  0
  1 16  2  0  0  0  0
  8 11  1  0  0  0  0
 16 17  1  0  0  0  0
  3  9  2  0  0  0  0
 17 18  2  0  0  0  0
  5  6  2  0  0  0  0
 18 19  1  0  0  0  0
  9  4  1  0  0  0  0
 19 20  2  0  0  0  0
 20  1  1  0  0  0  0
  6 10  1  0  0  0  0
 17 21  1  0  0  0  0
  4 12  2  0  0  0  0
 21 22  1  0  0  0  0
 10  8  2  0  0  0  0
 21 23  2  0  0  0  0
 12 14  1  0  0  0  0
 22 25  1  0  0  0  0
 24 25  1  0  0  0  0
  8 26  1  0  0  0  0
 24 27  1  0  0  0  0
 27 28  1  0  0  0  0
 27 32  1  0  0  0  0
 28 29  1  0  0  0  0
 29 30  1  0  0  0  0
 30 31  1  0  0  0  0
 31 32  1  0  0  0  0
M  END
> <Molecule Name>
DNDI1435757

> <CDD Number>
CDD-1535458

> <IC50_uM>
0.5 (n=1)

$$$$

SketchEl molfile

 26 28  0  0  0  0  0  0  0  0999 V2000
    7.8654   -7.8937    0.0000 N   0  0  0  0  0  0  0  0  0  0  0  0
    7.8560   -8.7186    0.0000 C   0  0  0  0  0  0  0  0  0  0  0  0
    8.5720   -9.1284    0.0000 C   0  0  0  0  0  0  0  0  0  0  0  0
    9.2869  -10.3607    0.0000 N   0  0  0  0  0  0  0  0  0  0  0  0
    7.1431   -9.1338    0.0000 C   0  0  0  0  0  0  0  0  0  0  0  0
    6.4278   -8.7247    0.0000 C   0  0  0  0  0  0  0  0  0  0  0  0
    7.1460   -9.9643    0.0000 C   0  0  0  0  0  0  0  0  0  0  0  0
    5.0000  -10.3767    0.0000 Cl  0  0  0  0  0  0  0  0  0  0  0  0
    5.7148   -9.9647    0.0000 C   0  0  0  0  0  0  0  0  0  0  0  0
    8.5717   -9.9510    0.0000 C   0  0  0  0  0  0  0  0  0  0  0  0
    5.7159   -9.1374    0.0000 C   0  0  0  0  0  0  0  0  0  0  0  0
    6.4296  -10.3776    0.0000 C   0  0  0  0  0  0  0  0  0  0  0  0
   10.0008   -9.9455    0.0000 C   0  0  0  0  0  0  0  0  0  0  0  0
    9.2793   -8.7103    0.0000 C   0  0  0  0  0  0  0  0  0  0  0  0
    9.9950   -9.1163    0.0000 N   0  0  0  0  0  0  0  0  0  0  0  0
    8.5855   -7.4938    0.0000 C   0  0  0  0  0  0  0  0  0  0  0  0
    8.5968   -6.6725    0.0000 C   0  0  0  0  0  0  0  0  0  0  0  0
    7.8890   -6.2481    0.0000 N   0  0  0  0  0  0  0  0  0  0  0  0
    7.1681   -6.6512    0.0000 C   0  0  0  0  0  0  0  0  0  0  0  0
    7.1550   -7.4787    0.0000 C   0  0  0  0  0  0  0  0  0  0  0  0
    7.9014   -5.4232    0.0000 C   0  0  0  0  0  0  0  0  0  0  0  0
    8.6220   -5.0216    0.0000 C   0  0  0  0  0  0  0  0  0  0  0  0
    7.1933   -5.0000    0.0000 O   0  0  0  0  0  0  0  0  0  0  0  0
    9.3302   -5.4449    0.0000 C   0  0  0  0  0  0  0  0  0  0  0  0
   10.0508   -5.0432    0.0000 C   0  0  0  0  0  0  0  0  0  0  0  0
    9.3177   -6.2697    0.0000 C   0  0  0  0  0  0  0  0  0  0  0  0
 18 19  1  0  0  0  0
 19 20  1  0  0  0  0
 14  3  1  0  0  0  0
 18 21  1  0  0  0  0
 12  7  2  0  0  0  0
  2  3  1  0  0  0  0
  7  5  1  0  0  0  0
  9 12  1  0  0  0  0
  3 10  2  0  0  0  0
  5  6  2  0  0  0  0
 10  4  1  0  0  0  0
 21 22  1  0  0  0  0
  6 11  1  0  0  0  0
  4 13  2  0  0  0  0
 11  9  2  0  0  0  0
 13 15  1  0  0  0  0
  1 16  1  0  0  0  0
  1  2  1  0  0  0  0
  5  2  1  0  0  0  0
  9  8  1  0  0  0  0
 21 23  2  0  0  0  0
 15 14  2  0  0  0  0
 22 24  1  0  0  0  0
  1 20  1  0  0  0  0
 24 25  1  0  0  0  0
 16 17  1  0  0  0  0
 17 18  1  0  0  0  0
 24 26  1  0  0  0  0
M  END
> <Molecule Name>
DNDI1435758

> <CDD Number>
CDD-1535459

> <IC50_uM>
0.43 (n=1)

$$$$

SketchEl molfile

 28 31  0  0  0  0  0  0  0  0999 V2000
    7.8656   -9.0960    0.0000 N   0  0  0  0  0  0  0  0  0  0  0  0
    7.8562   -9.9210    0.0000 C   0  0  0  0  0  0  0  0  0  0  0  0
    8.5723  -10.3308    0.0000 C   0  0  0  0  0  0  0  0  0  0  0  0
    9.2873  -11.5632    0.0000 N   0  0  0  0  0  0  0  0  0  0  0  0
    7.1433  -10.3362    0.0000 C   0  0  0  0  0  0  0  0  0  0  0  0
    6.4279   -9.9270    0.0000 C   0  0  0  0  0  0  0  0  0  0  0  0
    7.1462  -11.1667    0.0000 C   0  0  0  0  0  0  0  0  0  0  0  0
    5.0000  -11.5792    0.0000 Cl  0  0  0  0  0  0  0  0  0  0  0  0
    5.7148  -11.1672    0.0000 C   0  0  0  0  0  0  0  0  0  0  0  0
    8.5721  -11.1535    0.0000 C   0  0  0  0  0  0  0  0  0  0  0  0
    5.7160  -10.3398    0.0000 C   0  0  0  0  0  0  0  0  0  0  0  0
    6.4297  -11.5801    0.0000 C   0  0  0  0  0  0  0  0  0  0  0  0
   10.0012  -11.1479    0.0000 C   0  0  0  0  0  0  0  0  0  0  0  0
    9.2796   -9.9126    0.0000 C   0  0  0  0  0  0  0  0  0  0  0  0
    9.9954  -10.3187    0.0000 N   0  0  0  0  0  0  0  0  0  0  0  0
    8.5858   -8.6961    0.0000 C   0  0  0  0  0  0  0  0  0  0  0  0
    8.5971   -7.8747    0.0000 C   0  0  0  0  0  0  0  0  0  0  0  0
    7.8892   -7.4503    0.0000 N   0  0  0  0  0  0  0  0  0  0  0  0
    7.1683   -7.8534    0.0000 C   0  0  0  0  0  0  0  0  0  0  0  0
    7.1552   -8.6810    0.0000 C   0  0  0  0  0  0  0  0  0  0  0  0
    7.9017   -6.6253    0.0000 C   0  0  0  0  0  0  0  0  0  0  0  0
    8.6224   -6.2236    0.0000 C   0  0  0  0  0  0  0  0  0  0  0  0
    7.1935   -6.2020    0.0000 O   0  0  0  0  0  0  0  0  0  0  0  0
    9.3291   -6.6500    0.0000 C   0  0  0  0  0  0  0  0  0  0  0  0
   10.0493   -6.2491    0.0000 C   0  0  0  0  0  0  0  0  0  0  0  0
   10.0622   -5.4232    0.0000 C   0  0  0  0  0  0  0  0  0  0  0  0
    9.3490   -5.0000    0.0000 C   0  0  0  0  0  0  0  0  0  0  0  0
    8.6318   -5.4034    0.0000 C   0  0  0  0  0  0  0  0  0  0  0  0
 12  7  2  0  0  0  0
  2  3  1  0  0  0  0
  7  5  1  0  0  0  0
  9 12  1  0  0  0  0
  3 10  2  0  0  0  0
  5  6  2  0  0  0  0
 10  4  1  0  0  0  0
 21 22  1  0  0  0  0
  6 11  1  0  0  0  0
  4 13  2  0  0  0  0
 11  9  2  0  0  0  0
 13 15  1  0  0  0  0
  1 16  1  0  0  0  0
  1  2  1  0  0  0  0
  5  2  1  0  0  0  0
  9  8  1  0  0  0  0
 21 23  2  0  0  0  0
 15 14  2  0  0  0  0
  1 20  1  0  0  0  0
 16 17  1  0  0  0  0
 17 18  1  0  0  0  0
 22 24  2  0  0  0  0
 18 19  1  0  0  0  0
 24 25  1  0  0  0  0
 19 20  1  0  0  0  0
 25 26  2  0  0  0  0
 14  3  1  0  0  0  0
 26 27  1  0  0  0  0
 18 21  1  0  0  0  0
 27 28  2  0  0  0  0
 28 22  1  0  0  0  0
M  END
> <Molecule Name>
DNDI1435759

> <CDD Number>
CDD-1535460

> <IC50_uM>
0.5 (n=1)

$$$$

SketchEl molfile

 32 35  0  0  0  0  0  0  0  0999 V2000
    7.8656   -9.0959    0.0000 N   0  0  0  0  0  0  0  0  0  0  0  0
    7.8562   -9.9209    0.0000 C   0  0  0  0  0  0  0  0  0  0  0  0
    8.5723  -10.3307    0.0000 C   0  0  0  0  0  0  0  0  0  0  0  0
    9.2872  -11.5631    0.0000 N   0  0  0  0  0  0  0  0  0  0  0  0
    7.1433  -10.3361    0.0000 C   0  0  0  0  0  0  0  0  0  0  0  0
    6.4279   -9.9269    0.0000 C   0  0  0  0  0  0  0  0  0  0  0  0
    7.1461  -11.1666    0.0000 C   0  0  0  0  0  0  0  0  0  0  0  0
    5.0000  -11.5791    0.0000 Cl  0  0  0  0  0  0  0  0  0  0  0  0
    5.7148  -11.1671    0.0000 C   0  0  0  0  0  0  0  0  0  0  0  0
    8.5720  -11.1534    0.0000 C   0  0  0  0  0  0  0  0  0  0  0  0
    5.7160  -10.3397    0.0000 C   0  0  0  0  0  0  0  0  0  0  0  0
    6.4297  -11.5800    0.0000 C   0  0  0  0  0  0  0  0  0  0  0  0
   10.0012  -11.1478    0.0000 C   0  0  0  0  0  0  0  0  0  0  0  0
    9.2796   -9.9125    0.0000 C   0  0  0  0  0  0  0  0  0  0  0  0
    9.9954  -10.3185    0.0000 N   0  0  0  0  0  0  0  0  0  0  0  0
    8.5858   -8.6960    0.0000 C   0  0  0  0  0  0  0  0  0  0  0  0
    8.5971   -7.8746    0.0000 C   0  0  0  0  0  0  0  0  0  0  0  0
    7.8892   -7.4502    0.0000 N   0  0  0  0  0  0  0  0  0  0  0  0
    7.1682   -7.8533    0.0000 C   0  0  0  0  0  0  0  0  0  0  0  0
    7.1552   -8.6809    0.0000 C   0  0  0  0  0  0  0  0  0  0  0  0
    7.9017   -6.6252    0.0000 C   0  0  0  0  0  0  0  0  0  0  0  0
    8.6223   -6.2236    0.0000 C   0  0  0  0  0  0  0  0  0  0  0  0
    7.1935   -6.2020    0.0000 O   0  0  0  0  0  0  0  0  0  0  0  0
    9.3291   -6.6500    0.0000 C   0  0  0  0  0  0  0  0  0  0  0  0
   10.0493   -6.2490    0.0000 C   0  0  0  0  0  0  0  0  0  0  0  0
   10.0622   -5.4232    0.0000 C   0  0  0  0  0  0  0  0  0  0  0  0
    9.3490   -5.0000    0.0000 C   0  0  0  0  0  0  0  0  0  0  0  0
    8.6317   -5.4034    0.0000 C   0  0  0  0  0  0  0  0  0  0  0  0
   10.7823   -5.0205    0.0000 C   0  0  0  0  0  0  0  0  0  0  0  0
   11.4911   -5.4429    0.0000 F   0  0  0  0  0  0  0  0  0  0  0  0
   10.7937   -4.1956    0.0000 F   0  0  0  0  0  0  0  0  0  0  0  0
   10.9849   -5.8203    0.0000 F   0  0  0  0  0  0  0  0  0  0  0  0
 26 29  1  0  0  0  0
 29 30  1  0  0  0  0
 29 31  1  0  0  0  0
 29 32  1  0  0  0  0
 10  4  1  0  0  0  0
 21 22  1  0  0  0  0
  6 11  1  0  0  0  0
  4 13  2  0  0  0  0
 11  9  2  0  0  0  0
 13 15  1  0  0  0  0
  1 16  1  0  0  0  0
  1  2  1  0  0  0  0
  5  2  1  0  0  0  0
  9  8  1  0  0  0  0
 21 23  2  0  0  0  0
 15 14  2  0  0  0  0
  1 20  1  0  0  0  0
 16 17  1  0  0  0  0
 17 18  1  0  0  0  0
 22 24  2  0  0  0  0
 18 19  1  0  0  0  0
 24 25  1  0  0  0  0
 19 20  1  0  0  0  0
 25 26  2  0  0  0  0
 14  3  1  0  0  0  0
 26 27  1  0  0  0  0
 18 21  1  0  0  0  0
 27 28  2  0  0  0  0
 28 22  1  0  0  0  0
 12  7  2  0  0  0  0
  2  3  1  0  0  0  0
  7  5  1  0  0  0  0
  9 12  1  0  0  0  0
  3 10  2  0  0  0  0
  5  6  2  0  0  0  0
M  END
> <Molecule Name>
DNDI1435760

> <CDD Number>
CDD-1535461

> <IC50_uM>
0.15 (n=1)

$$$$

SketchEl molfile

 32 35  0  0  0  0  0  0  0  0999 V2000
    7.8784   -7.4096    0.0000 S   0  0  0  0  0  0  0  0  0  0  0  0
    8.5951   -7.0115    0.0000 C   0  0  0  0  0  0  0  0  0  0  0  0
    6.9835   -7.3936    0.0000 O   0  0  0  0  0  0  0  0  0  0  0  0
    9.2970   -7.4360    0.0000 C   0  0  0  0  0  0  0  0  0  0  0  0
   10.0133   -7.0387    0.0000 C   0  0  0  0  0  0  0  0  0  0  0  0
   10.0226   -6.2184    0.0000 C   0  0  0  0  0  0  0  0  0  0  0  0
    9.3183   -5.7973    0.0000 C   0  0  0  0  0  0  0  0  0  0  0  0
    8.6052   -6.1973    0.0000 C   0  0  0  0  0  0  0  0  0  0  0  0
   10.7388   -5.8193    0.0000 C   0  0  0  0  0  0  0  0  0  0  0  0
   11.4428   -6.2395    0.0000 C   0  0  0  0  0  0  0  0  0  0  0  0
   10.7510   -5.0000    0.0000 C   0  0  0  0  0  0  0  0  0  0  0  0
    7.8651   -8.2289    0.0000 N   0  0  0  0  0  0  0  0  0  0  0  0
    7.3870   -6.5857    0.0000 O   0  0  0  0  0  0  0  0  0  0  0  0
    7.8443   -9.8630    0.0000 N   0  0  0  0  0  0  0  0  0  0  0  0
    7.8343  -10.6823    0.0000 C   0  0  0  0  0  0  0  0  0  0  0  0
    8.5461  -11.0891    0.0000 C   0  0  0  0  0  0  0  0  0  0  0  0
    9.2568  -12.3127    0.0000 N   0  0  0  0  0  0  0  0  0  0  0  0
    7.1258  -11.0949    0.0000 C   0  0  0  0  0  0  0  0  0  0  0  0
    6.4146  -10.6888    0.0000 C   0  0  0  0  0  0  0  0  0  0  0  0
    7.1288  -11.9157    0.0000 C   0  0  0  0  0  0  0  0  0  0  0  0
    5.0000  -12.3253    0.0000 Cl  0  0  0  0  0  0  0  0  0  0  0  0
    5.7061  -11.9162    0.0000 C   0  0  0  0  0  0  0  0  0  0  0  0
    8.5458  -11.9060    0.0000 C   0  0  0  0  0  0  0  0  0  0  0  0
    5.7073  -11.0987    0.0000 C   0  0  0  0  0  0  0  0  0  0  0  0
    6.4166  -12.3263    0.0000 C   0  0  0  0  0  0  0  0  0  0  0  0
    9.9619  -11.9001    0.0000 C   0  0  0  0  0  0  0  0  0  0  0  0
    9.2486  -10.6734    0.0000 C   0  0  0  0  0  0  0  0  0  0  0  0
    9.9557  -11.0761    0.0000 N   0  0  0  0  0  0  0  0  0  0  0  0
    8.5606   -9.4668    0.0000 C   0  0  0  0  0  0  0  0  0  0  0  0
    8.5682   -8.6513    0.0000 C   0  0  0  0  0  0  0  0  0  0  0  0
    7.1525   -8.6285    0.0000 C   0  0  0  0  0  0  0  0  0  0  0  0
    7.1385   -9.4506    0.0000 C   0  0  0  0  0  0  0  0  0  0  0  0
  6  9  1  0  0  0  0
  1  2  1  0  0  0  0
  9 10  1  0  0  0  0
  1  3  2  0  0  0  0
  9 11  1  0  0  0  0
  2  4  2  0  0  0  0
  1 12  1  0  0  0  0
  4  5  1  0  0  0  0
  1 13  2  0  0  0  0
  5  6  2  0  0  0  0
  6  7  1  0  0  0  0
  7  8  2  0  0  0  0
  8  2  1  0  0  0  0
 23 17  1  0  0  0  0
 19 24  1  0  0  0  0
 17 26  2  0  0  0  0
 24 22  2  0  0  0  0
 26 28  1  0  0  0  0
 14 29  1  0  0  0  0
 14 15  1  0  0  0  0
 18 15  1  0  0  0  0
 22 21  1  0  0  0  0
 28 27  2  0  0  0  0
 14 32  1  0  0  0  0
 29 30  1  0  0  0  0
 30 12  1  0  0  0  0
 12 31  1  0  0  0  0
 31 32  1  0  0  0  0
 27 16  1  0  0  0  0
 25 20  2  0  0  0  0
 15 16  1  0  0  0  0
 20 18  1  0  0  0  0
 22 25  1  0  0  0  0
 16 23  2  0  0  0  0
 18 19  2  0  0  0  0
M  END
> <Molecule Name>
DNDI1435761

> <CDD Number>
CDD-1535462

> <IC50_uM>
0.024 (n=1)

$$$$

SketchEl molfile

 27 29  0  0  0  0  0  0  0  0999 V2000
    7.8738   -5.8226    0.0000 S   0  0  0  0  0  0  0  0  0  0  0  0
    8.5894   -5.4251    0.0000 C   0  0  0  0  0  0  0  0  0  0  0  0
    6.9803   -5.8067    0.0000 O   0  0  0  0  0  0  0  0  0  0  0  0
    9.2902   -5.8490    0.0000 C   0  0  0  0  0  0  0  0  0  0  0  0
   10.0052   -5.4522    0.0000 C   0  0  0  0  0  0  0  0  0  0  0  0
    7.8605   -6.6406    0.0000 N   0  0  0  0  0  0  0  0  0  0  0  0
    7.3832   -5.0000    0.0000 O   0  0  0  0  0  0  0  0  0  0  0  0
    7.8397   -8.2720    0.0000 N   0  0  0  0  0  0  0  0  0  0  0  0
    7.8297   -9.0900    0.0000 C   0  0  0  0  0  0  0  0  0  0  0  0
    8.5404   -9.4962    0.0000 C   0  0  0  0  0  0  0  0  0  0  0  0
    9.2499  -10.7178    0.0000 N   0  0  0  0  0  0  0  0  0  0  0  0
    7.1224   -9.5019    0.0000 C   0  0  0  0  0  0  0  0  0  0  0  0
    6.4124   -9.0965    0.0000 C   0  0  0  0  0  0  0  0  0  0  0  0
    7.1254  -10.3215    0.0000 C   0  0  0  0  0  0  0  0  0  0  0  0
    5.0000  -10.7304    0.0000 Cl  0  0  0  0  0  0  0  0  0  0  0  0
    5.7049  -10.3220    0.0000 C   0  0  0  0  0  0  0  0  0  0  0  0
    8.5402  -10.3118    0.0000 C   0  0  0  0  0  0  0  0  0  0  0  0
    5.7062   -9.5058    0.0000 C   0  0  0  0  0  0  0  0  0  0  0  0
    6.4143  -10.7314    0.0000 C   0  0  0  0  0  0  0  0  0  0  0  0
    9.9539  -10.3059    0.0000 C   0  0  0  0  0  0  0  0  0  0  0  0
    9.2418   -9.0812    0.0000 C   0  0  0  0  0  0  0  0  0  0  0  0
    9.9477   -9.4833    0.0000 N   0  0  0  0  0  0  0  0  0  0  0  0
    8.5548   -7.8764    0.0000 C   0  0  0  0  0  0  0  0  0  0  0  0
    8.5624   -7.0623    0.0000 C   0  0  0  0  0  0  0  0  0  0  0  0
    7.1490   -7.0396    0.0000 C   0  0  0  0  0  0  0  0  0  0  0  0
    7.1351   -7.8603    0.0000 C   0  0  0  0  0  0  0  0  0  0  0  0
    9.2748   -6.6678    0.0000 C   0  0  0  0  0  0  0  0  0  0  0  0
  1  2  1  0  0  0  0
  1  3  2  0  0  0  0
  2  4  1  0  0  0  0
  1  6  1  0  0  0  0
  4  5  1  0  0  0  0
  1  7  2  0  0  0  0
 17 11  1  0  0  0  0
 13 18  1  0  0  0  0
 11 20  2  0  0  0  0
 18 16  2  0  0  0  0
 20 22  1  0  0  0  0
  8 23  1  0  0  0  0
  8  9  1  0  0  0  0
 12  9  1  0  0  0  0
 16 15  1  0  0  0  0
 22 21  2  0  0  0  0
  8 26  1  0  0  0  0
 23 24  1  0  0  0  0
 24  6  1  0  0  0  0
  6 25  1  0  0  0  0
 25 26  1  0  0  0  0
 21 10  1  0  0  0  0
 19 14  2  0  0  0  0
  9 10  1  0  0  0  0
 14 12  1  0  0  0  0
 16 19  1  0  0  0  0
 10 17  2  0  0  0  0
 12 13  2  0  0  0  0
  4 27  1  0  0  0  0
M  END
> <Molecule Name>
DNDI1435762

> <CDD Number>
CDD-1535463

> <IC50_uM>
0.062 (n=1)

$$$$

SketchEl molfile

 30 33  0  0  0  0  0  0  0  0999 V2000
    7.8766   -6.6120    0.0000 S   0  0  0  0  0  0  0  0  0  0  0  0
    8.5929   -6.2142    0.0000 C   0  0  0  0  0  0  0  0  0  0  0  0
    6.9823   -6.5961    0.0000 O   0  0  0  0  0  0  0  0  0  0  0  0
    7.8633   -7.4308    0.0000 N   0  0  0  0  0  0  0  0  0  0  0  0
    7.3855   -5.7886    0.0000 O   0  0  0  0  0  0  0  0  0  0  0  0
    7.8426   -9.0639    0.0000 N   0  0  0  0  0  0  0  0  0  0  0  0
    7.8326   -9.8827    0.0000 C   0  0  0  0  0  0  0  0  0  0  0  0
    8.5439  -10.2893    0.0000 C   0  0  0  0  0  0  0  0  0  0  0  0
    9.2542  -11.5121    0.0000 N   0  0  0  0  0  0  0  0  0  0  0  0
    7.1245  -10.2950    0.0000 C   0  0  0  0  0  0  0  0  0  0  0  0
    6.4138   -9.8892    0.0000 C   0  0  0  0  0  0  0  0  0  0  0  0
    7.1275  -11.1154    0.0000 C   0  0  0  0  0  0  0  0  0  0  0  0
    5.0000  -11.5247    0.0000 Cl  0  0  0  0  0  0  0  0  0  0  0  0
    5.7056  -11.1159    0.0000 C   0  0  0  0  0  0  0  0  0  0  0  0
    8.5437  -11.1056    0.0000 C   0  0  0  0  0  0  0  0  0  0  0  0
    5.7069  -10.2989    0.0000 C   0  0  0  0  0  0  0  0  0  0  0  0
    6.4157  -11.5257    0.0000 C   0  0  0  0  0  0  0  0  0  0  0  0
    9.9588  -11.0997    0.0000 C   0  0  0  0  0  0  0  0  0  0  0  0
    9.2460   -9.8738    0.0000 C   0  0  0  0  0  0  0  0  0  0  0  0
    9.9526  -10.2763    0.0000 C   0  0  0  0  0  0  0  0  0  0  0  0
    8.5584   -8.6679    0.0000 C   0  0  0  0  0  0  0  0  0  0  0  0
    8.5660   -7.8530    0.0000 C   0  0  0  0  0  0  0  0  0  0  0  0
    7.1512   -7.8302    0.0000 C   0  0  0  0  0  0  0  0  0  0  0  0
    7.1372   -8.6518    0.0000 C   0  0  0  0  0  0  0  0  0  0  0  0
    9.2942   -6.6387    0.0000 C   0  0  0  0  0  0  0  0  0  0  0  0
   10.0100   -6.2415    0.0000 C   0  0  0  0  0  0  0  0  0  0  0  0
   10.0241   -5.4214    0.0000 C   0  0  0  0  0  0  0  0  0  0  0  0
    9.3164   -5.0000    0.0000 C   0  0  0  0  0  0  0  0  0  0  0  0
    8.6035   -5.3996    0.0000 C   0  0  0  0  0  0  0  0  0  0  0  0
   10.7406   -5.0221    0.0000 Cl  0  0  0  0  0  0  0  0  0  0  0  0
 11 16  1  0  0  0  0
  9 18  2  0  0  0  0
 16 14  2  0  0  0  0
 18 20  1  0  0  0  0
  6 21  1  0  0  0  0
  6  7  1  0  0  0  0
 10  7  1  0  0  0  0
 14 13  1  0  0  0  0
 20 19  2  0  0  0  0
  6 24  1  0  0  0  0
 21 22  1  0  0  0  0
 22  4  1  0  0  0  0
  4 23  1  0  0  0  0
 23 24  1  0  0  0  0
 19  8  1  0  0  0  0
 17 12  2  0  0  0  0
  7  8  1  0  0  0  0
 12 10  1  0  0  0  0
 14 17  1  0  0  0  0
  8 15  2  0  0  0  0
 10 11  2  0  0  0  0
  2 25  2  0  0  0  0
  1  2  1  0  0  0  0
 25 26  1  0  0  0  0
  1  3  2  0  0  0  0
 26 27  2  0  0  0  0
  1  4  1  0  0  0  0
 27 28  1  0  0  0  0
  1  5  2  0  0  0  0
 28 29  2  0  0  0  0
 29  2  1  0  0  0  0
 15  9  1  0  0  0  0
 27 30  1  0  0  0  0
M  END
> <Molecule Name>
DNDI1435763

> <CDD Number>
CDD-1535464

> <IC50_uM>
0.024 (n=1)

$$$$

SketchEl molfile

 32 35  0  0  0  0  0  0  0  0999 V2000
    7.8801   -7.4114    0.0000 S   0  0  0  0  0  0  0  0  0  0  0  0
    8.5950   -7.0119    0.0000 C   0  0  0  0  0  0  0  0  0  0  0  0
    6.9863   -7.3954    0.0000 O   0  0  0  0  0  0  0  0  0  0  0  0
    7.8667   -8.2293    0.0000 N   0  0  0  0  0  0  0  0  0  0  0  0
    7.3868   -6.5845    0.0000 O   0  0  0  0  0  0  0  0  0  0  0  0
    7.8458   -9.8649    0.0000 N   0  0  0  0  0  0  0  0  0  0  0  0
    7.8358  -10.6828    0.0000 C   0  0  0  0  0  0  0  0  0  0  0  0
    8.5458  -11.0866    0.0000 C   0  0  0  0  0  0  0  0  0  0  0  0
    9.2545  -12.3103    0.0000 N   0  0  0  0  0  0  0  0  0  0  0  0
    7.1247  -11.0924    0.0000 C   0  0  0  0  0  0  0  0  0  0  0  0
    6.4154  -10.6893    0.0000 C   0  0  0  0  0  0  0  0  0  0  0  0
    7.1277  -11.9163    0.0000 C   0  0  0  0  0  0  0  0  0  0  0  0
    5.0000  -12.3229    0.0000 Cl  0  0  0  0  0  0  0  0  0  0  0  0
    5.7087  -11.9168    0.0000 C   0  0  0  0  0  0  0  0  0  0  0  0
    8.5455  -11.9065    0.0000 C   0  0  0  0  0  0  0  0  0  0  0  0
    5.7099  -11.0963    0.0000 C   0  0  0  0  0  0  0  0  0  0  0  0
    6.4173  -12.3239    0.0000 C   0  0  0  0  0  0  0  0  0  0  0  0
    9.9622  -11.9006    0.0000 C   0  0  0  0  0  0  0  0  0  0  0  0
    9.2464  -10.6739    0.0000 C   0  0  0  0  0  0  0  0  0  0  0  0
    9.9560  -11.0736    0.0000 C   0  0  0  0  0  0  0  0  0  0  0  0
    8.5603   -9.4672    0.0000 C   0  0  0  0  0  0  0  0  0  0  0  0
    8.5679   -8.6533    0.0000 C   0  0  0  0  0  0  0  0  0  0  0  0
    7.1515   -8.6304    0.0000 C   0  0  0  0  0  0  0  0  0  0  0  0
    7.1375   -9.4511    0.0000 C   0  0  0  0  0  0  0  0  0  0  0  0
    9.2948   -7.4382    0.0000 C   0  0  0  0  0  0  0  0  0  0  0  0
   10.0137   -7.0393    0.0000 C   0  0  0  0  0  0  0  0  0  0  0  0
   10.0278   -6.2202    0.0000 C   0  0  0  0  0  0  0  0  0  0  0  0
    9.3171   -5.7970    0.0000 C   0  0  0  0  0  0  0  0  0  0  0  0
    8.6056   -6.1983    0.0000 C   0  0  0  0  0  0  0  0  0  0  0  0
   10.7430   -5.8192    0.0000 C   0  0  0  0  0  0  0  0  0  0  0  0
   11.4455   -6.2419    0.0000 C   0  0  0  0  0  0  0  0  0  0  0  0
   10.7555   -5.0000    0.0000 C   0  0  0  0  0  0  0  0  0  0  0  0
  9 18  2  0  0  0  0
 16 14  2  0  0  0  0
 18 20  1  0  0  0  0
  6 21  1  0  0  0  0
  6  7  1  0  0  0  0
 10  7  1  0  0  0  0
 14 13  1  0  0  0  0
 20 19  2  0  0  0  0
  6 24  1  0  0  0  0
 21 22  1  0  0  0  0
 22  4  1  0  0  0  0
  4 23  1  0  0  0  0
 23 24  1  0  0  0  0
 19  8  1  0  0  0  0
 17 12  2  0  0  0  0
  7  8  1  0  0  0  0
 12 10  1  0  0  0  0
 14 17  1  0  0  0  0
  8 15  2  0  0  0  0
 10 11  2  0  0  0  0
  2 25  2  0  0  0  0
  1  2  1  0  0  0  0
 25 26  1  0  0  0  0
  1  3  2  0  0  0  0
 26 27  2  0  0  0  0
  1  4  1  0  0  0  0
 27 28  1  0  0  0  0
  1  5  2  0  0  0  0
 28 29  2  0  0  0  0
 29  2  1  0  0  0  0
 15  9  1  0  0  0  0
 27 30  1  0  0  0  0
 30 31  1  0  0  0  0
 11 16  1  0  0  0  0
 30 32  1  0  0  0  0
M  END
> <Molecule Name>
DNDI1435764

> <CDD Number>
CDD-1535465

> <IC50_uM>
0.012 (n=1)

$$$$

SketchEl molfile

 30 33  0  0  0  0  0  0  0  0999 V2000
    7.8251   -5.8111    0.0000 S   0  0  0  0  0  0  0  0  0  0  0  0
    6.9484   -5.7954    0.0000 O   0  0  0  0  0  0  0  0  0  0  0  0
    7.8119   -6.6134    0.0000 N   0  0  0  0  0  0  0  0  0  0  0  0
    7.3413   -5.0000    0.0000 O   0  0  0  0  0  0  0  0  0  0  0  0
    7.7915   -8.2178    0.0000 N   0  0  0  0  0  0  0  0  0  0  0  0
    7.7816   -9.0200    0.0000 C   0  0  0  0  0  0  0  0  0  0  0  0
    8.4781   -9.4162    0.0000 C   0  0  0  0  0  0  0  0  0  0  0  0
    9.1733  -10.6164    0.0000 N   0  0  0  0  0  0  0  0  0  0  0  0
    7.0841   -9.4218    0.0000 C   0  0  0  0  0  0  0  0  0  0  0  0
    6.3884   -9.0264    0.0000 C   0  0  0  0  0  0  0  0  0  0  0  0
    7.0871  -10.2299    0.0000 C   0  0  0  0  0  0  0  0  0  0  0  0
    5.0000  -10.6288    0.0000 Cl  0  0  0  0  0  0  0  0  0  0  0  0
    5.6951  -10.2304    0.0000 C   0  0  0  0  0  0  0  0  0  0  0  0
    8.4778  -10.2204    0.0000 C   0  0  0  0  0  0  0  0  0  0  0  0
    5.6963   -9.4256    0.0000 C   0  0  0  0  0  0  0  0  0  0  0  0
    6.3903  -10.6298    0.0000 C   0  0  0  0  0  0  0  0  0  0  0  0
    9.8675  -10.2146    0.0000 C   0  0  0  0  0  0  0  0  0  0  0  0
    9.1653   -9.0113    0.0000 C   0  0  0  0  0  0  0  0  0  0  0  0
    9.8614   -9.4034    0.0000 C   0  0  0  0  0  0  0  0  0  0  0  0
    8.4923   -7.8277    0.0000 C   0  0  0  0  0  0  0  0  0  0  0  0
    8.4998   -7.0293    0.0000 C   0  0  0  0  0  0  0  0  0  0  0  0
    7.1104   -7.0068    0.0000 C   0  0  0  0  0  0  0  0  0  0  0  0
    7.0966   -7.8118    0.0000 C   0  0  0  0  0  0  0  0  0  0  0  0
    8.5834   -5.3883    0.0000 C   0  0  0  0  0  0  0  0  0  0  0  0
    9.3286   -5.8335    0.0000 C   0  0  0  0  0  0  0  0  0  0  0  0
    9.3121   -6.6997    0.0000 C   0  0  0  0  0  0  0  0  0  0  0  0
   10.0565   -7.1448    0.0000 C   0  0  0  0  0  0  0  0  0  0  0  0
   10.8157   -6.7220    0.0000 C   0  0  0  0  0  0  0  0  0  0  0  0
   10.8259   -5.8494    0.0000 C   0  0  0  0  0  0  0  0  0  0  0  0
   10.0809   -5.4083    0.0000 C   0  0  0  0  0  0  0  0  0  0  0  0
 13 12  1  0  0  0  0
 19 18  2  0  0  0  0
  5 23  1  0  0  0  0
 20 21  1  0  0  0  0
 21  3  1  0  0  0  0
  3 22  1  0  0  0  0
 22 23  1  0  0  0  0
 18  7  1  0  0  0  0
 16 11  2  0  0  0  0
  6  7  1  0  0  0  0
 11  9  1  0  0  0  0
 13 16  1  0  0  0  0
  7 14  2  0  0  0  0
  9 10  2  0  0  0  0
  1  2  2  0  0  0  0
  1  3  1  0  0  0  0
  1  4  2  0  0  0  0
 14  8  1  0  0  0  0
 10 15  1  0  0  0  0
  1 24  1  0  0  0  0
  8 17  2  0  0  0  0
 24 25  1  0  0  0  0
 15 13  2  0  0  0  0
 25 26  2  0  0  0  0
 17 19  1  0  0  0  0
 26 27  1  0  0  0  0
  5 20  1  0  0  0  0
 27 28  2  0  0  0  0
  5  6  1  0  0  0  0
 28 29  1  0  0  0  0
  9  6  1  0  0  0  0
 29 30  2  0  0  0  0
 30 25  1  0  0  0  0
M  END
> <Molecule Name>
DNDI1435765

> <CDD Number>
CDD-1535466

> <IC50_uM>
0.032 (n=1)

$$$$

SketchEl molfile

 33 36  0  0  0  0  0  0  0  0999 V2000
    7.8123   -6.7024    0.0000 S   0  0  0  0  0  0  0  0  0  0  0  0
    6.9370   -6.6908    0.0000 O   0  0  0  0  0  0  0  0  0  0  0  0
    7.7988   -7.5014    0.0000 N   0  0  0  0  0  0  0  0  0  0  0  0
    7.3303   -5.8987    0.0000 O   0  0  0  0  0  0  0  0  0  0  0  0
    7.7779   -9.0996    0.0000 N   0  0  0  0  0  0  0  0  0  0  0  0
    7.7678   -9.8987    0.0000 C   0  0  0  0  0  0  0  0  0  0  0  0
    8.4630  -10.2909    0.0000 C   0  0  0  0  0  0  0  0  0  0  0  0
    9.1526  -11.4886    0.0000 N   0  0  0  0  0  0  0  0  0  0  0  0
    7.0714  -10.2967    0.0000 C   0  0  0  0  0  0  0  0  0  0  0  0
    6.3814   -9.9052    0.0000 C   0  0  0  0  0  0  0  0  0  0  0  0
    7.0745  -11.1018    0.0000 C   0  0  0  0  0  0  0  0  0  0  0  0
    5.0000  -11.5013    0.0000 Cl  0  0  0  0  0  0  0  0  0  0  0  0
    5.6894  -11.1023    0.0000 C   0  0  0  0  0  0  0  0  0  0  0  0
    8.4627  -11.0920    0.0000 C   0  0  0  0  0  0  0  0  0  0  0  0
    5.6907  -10.3006    0.0000 C   0  0  0  0  0  0  0  0  0  0  0  0
    6.3833  -11.5023    0.0000 C   0  0  0  0  0  0  0  0  0  0  0  0
    9.8455  -11.0861    0.0000 C   0  0  0  0  0  0  0  0  0  0  0  0
    9.1443   -9.8897    0.0000 C   0  0  0  0  0  0  0  0  0  0  0  0
    9.8393  -10.2823    0.0000 C   0  0  0  0  0  0  0  0  0  0  0  0
    8.4776   -8.7136    0.0000 C   0  0  0  0  0  0  0  0  0  0  0  0
    8.4808   -7.9184    0.0000 C   0  0  0  0  0  0  0  0  0  0  0  0
    7.0983   -7.8954    0.0000 C   0  0  0  0  0  0  0  0  0  0  0  0
    7.0843   -8.6973    0.0000 C   0  0  0  0  0  0  0  0  0  0  0  0
    8.5664   -6.2828    0.0000 C   0  0  0  0  0  0  0  0  0  0  0  0
    9.3060   -6.7289    0.0000 C   0  0  0  0  0  0  0  0  0  0  0  0
   10.0641   -6.3100    0.0000 C   0  0  0  0  0  0  0  0  0  0  0  0
   10.0733   -5.4469    0.0000 C   0  0  0  0  0  0  0  0  0  0  0  0
    9.3270   -5.0000    0.0000 C   0  0  0  0  0  0  0  0  0  0  0  0
    8.5765   -5.4259    0.0000 C   0  0  0  0  0  0  0  0  0  0  0  0
   10.8312   -5.0219    0.0000 C   0  0  0  0  0  0  0  0  0  0  0  0
   11.5725   -5.4634    0.0000 F   0  0  0  0  0  0  0  0  0  0  0  0
   10.8433   -4.1600    0.0000 F   0  0  0  0  0  0  0  0  0  0  0  0
   11.0406   -5.8612    0.0000 F   0  0  0  0  0  0  0  0  0  0  0  0
 27 30  1  0  0  0  0
 30 31  1  0  0  0  0
 30 32  1  0  0  0  0
 30 33  1  0  0  0  0
 18  7  1  0  0  0  0
 16 11  2  0  0  0  0
  6  7  1  0  0  0  0
 11  9  1  0  0  0  0
 13 16  1  0  0  0  0
  7 14  2  0  0  0  0
  9 10  2  0  0  0  0
  1  2  2  0  0  0  0
  1  3  1  0  0  0  0
  1  4  2  0  0  0  0
 14  8  1  0  0  0  0
 10 15  1  0  0  0  0
  1 24  1  0  0  0  0
  8 17  2  0  0  0  0
 15 13  2  0  0  0  0
 17 19  1  0  0  0  0
  5 20  1  0  0  0  0
  5  6  1  0  0  0  0
  9  6  1  0  0  0  0
 24 25  2  0  0  0  0
 13 12  1  0  0  0  0
 25 26  1  0  0  0  0
 19 18  2  0  0  0  0
 26 27  2  0  0  0  0
  5 23  1  0  0  0  0
 27 28  1  0  0  0  0
 20 21  1  0  0  0  0
 28 29  2  0  0  0  0
 29 24  1  0  0  0  0
 21  3  1  0  0  0  0
  3 22  1  0  0  0  0
 22 23  1  0  0  0  0
M  END
> <Molecule Name>
DNDI1435766

> <CDD Number>
CDD-1535467

> <IC50_uM>
0.055 (n=1)

$$$$

SketchEl molfile

 29 32  0  0  0  0  0  0  0  0999 V2000
    7.8890   -6.2503    0.0000 N   0  0  0  0  0  0  0  0  0  0  0  0
    7.8674   -7.8999    0.0000 N   0  0  0  0  0  0  0  0  0  0  0  0
    7.8569   -8.7248    0.0000 C   0  0  0  0  0  0  0  0  0  0  0  0
    8.5746   -9.1296    0.0000 C   0  0  0  0  0  0  0  0  0  0  0  0
    9.2863  -10.3660    0.0000 N   0  0  0  0  0  0  0  0  0  0  0  0
    7.1382   -9.1356    0.0000 C   0  0  0  0  0  0  0  0  0  0  0  0
    6.4259   -8.7315    0.0000 C   0  0  0  0  0  0  0  0  0  0  0  0
    7.1413   -9.9667    0.0000 C   0  0  0  0  0  0  0  0  0  0  0  0
    5.0000  -10.3791    0.0000 Cl  0  0  0  0  0  0  0  0  0  0  0  0
    5.7116   -9.9672    0.0000 C   0  0  0  0  0  0  0  0  0  0  0  0
    8.5743   -9.9566    0.0000 C   0  0  0  0  0  0  0  0  0  0  0  0
    5.7129   -9.1397    0.0000 C   0  0  0  0  0  0  0  0  0  0  0  0
    6.4279  -10.3801    0.0000 C   0  0  0  0  0  0  0  0  0  0  0  0
   10.0016   -9.9504    0.0000 C   0  0  0  0  0  0  0  0  0  0  0  0
    9.2778   -8.7156    0.0000 C   0  0  0  0  0  0  0  0  0  0  0  0
    9.9951   -9.1208    0.0000 N   0  0  0  0  0  0  0  0  0  0  0  0
    8.5896   -7.5015    0.0000 C   0  0  0  0  0  0  0  0  0  0  0  0
    8.5929   -6.6807    0.0000 C   0  0  0  0  0  0  0  0  0  0  0  0
    7.1659   -6.6570    0.0000 C   0  0  0  0  0  0  0  0  0  0  0  0
    7.1514   -7.4847    0.0000 C   0  0  0  0  0  0  0  0  0  0  0  0
    7.9040   -5.4254    0.0000 C   0  0  0  0  0  0  0  0  0  0  0  0
    8.6259   -5.0260    0.0000 C   0  0  0  0  0  0  0  0  0  0  0  0
    7.1971   -5.0000    0.0000 O   0  0  0  0  0  0  0  0  0  0  0  0
    9.3328   -5.4515    0.0000 C   0  0  0  0  0  0  0  0  0  0  0  0
    9.3160   -6.2768    0.0000 C   0  0  0  0  0  0  0  0  0  0  0  0
   10.0221   -6.7021    0.0000 C   0  0  0  0  0  0  0  0  0  0  0  0
   10.7449   -6.3026    0.0000 C   0  0  0  0  0  0  0  0  0  0  0  0
   10.7574   -5.4734    0.0000 C   0  0  0  0  0  0  0  0  0  0  0  0
   10.0507   -5.0518    0.0000 C   0  0  0  0  0  0  0  0  0  0  0  0
  7 12  1  0  0  0  0
  5 14  2  0  0  0  0
 12 10  2  0  0  0  0
 14 16  1  0  0  0  0
  2 17  1  0  0  0  0
  2  3  1  0  0  0  0
  6  3  1  0  0  0  0
 10  9  1  0  0  0  0
 16 15  2  0  0  0  0
  2 20  1  0  0  0  0
 17 18  1  0  0  0  0
 18  1  1  0  0  0  0
  1 19  1  0  0  0  0
 19 20  1  0  0  0  0
  1 21  1  0  0  0  0
 15  4  1  0  0  0  0
 21 22  1  0  0  0  0
 13  8  2  0  0  0  0
 21 23  2  0  0  0  0
  3  4  1  0  0  0  0
 22 24  1  0  0  0  0
  8  6  1  0  0  0  0
 24 25  2  0  0  0  0
 10 13  1  0  0  0  0
 25 26  1  0  0  0  0
  4 11  2  0  0  0  0
 26 27  2  0  0  0  0
  6  7  2  0  0  0  0
 27 28  1  0  0  0  0
 11  5  1  0  0  0  0
 28 29  2  0  0  0  0
 29 24  1  0  0  0  0
M  END
> <Molecule Name>
DNDI1435767

> <CDD Number>
CDD-1535468

> <IC50_uM>
0.5 (n=1)

$$$$

SketchEl molfile

 25 27  0  0  0  0  0  0  0  0999 V2000
    7.8889   -7.0492    0.0000 N   0  0  0  0  0  0  0  0  0  0  0  0
    7.8673   -8.6988    0.0000 N   0  0  0  0  0  0  0  0  0  0  0  0
    7.8569   -9.5236    0.0000 C   0  0  0  0  0  0  0  0  0  0  0  0
    8.5745   -9.9285    0.0000 C   0  0  0  0  0  0  0  0  0  0  0  0
    9.2862  -11.1648    0.0000 N   0  0  0  0  0  0  0  0  0  0  0  0
    7.1381   -9.9345    0.0000 C   0  0  0  0  0  0  0  0  0  0  0  0
    6.4258   -9.5304    0.0000 C   0  0  0  0  0  0  0  0  0  0  0  0
    7.1413  -10.7655    0.0000 C   0  0  0  0  0  0  0  0  0  0  0  0
    5.0000  -11.1779    0.0000 Cl  0  0  0  0  0  0  0  0  0  0  0  0
    5.7116  -10.7660    0.0000 C   0  0  0  0  0  0  0  0  0  0  0  0
    8.5742  -10.7554    0.0000 C   0  0  0  0  0  0  0  0  0  0  0  0
    5.7129   -9.9385    0.0000 C   0  0  0  0  0  0  0  0  0  0  0  0
    6.4279  -11.1789    0.0000 C   0  0  0  0  0  0  0  0  0  0  0  0
   10.0015  -10.7492    0.0000 C   0  0  0  0  0  0  0  0  0  0  0  0
    9.2777   -9.5144    0.0000 C   0  0  0  0  0  0  0  0  0  0  0  0
    9.9950   -9.9196    0.0000 N   0  0  0  0  0  0  0  0  0  0  0  0
    8.5895   -8.3004    0.0000 C   0  0  0  0  0  0  0  0  0  0  0  0
    8.5928   -7.4796    0.0000 C   0  0  0  0  0  0  0  0  0  0  0  0
    7.1659   -7.4559    0.0000 C   0  0  0  0  0  0  0  0  0  0  0  0
    7.1514   -8.2836    0.0000 C   0  0  0  0  0  0  0  0  0  0  0  0
    7.9039   -6.2243    0.0000 C   0  0  0  0  0  0  0  0  0  0  0  0
    8.6258   -5.8249    0.0000 N   0  0  0  0  0  0  0  0  0  0  0  0
    7.1971   -5.7989    0.0000 O   0  0  0  0  0  0  0  0  0  0  0  0
    9.3327   -6.2504    0.0000 C   0  0  0  0  0  0  0  0  0  0  0  0
    8.6408   -5.0000    0.0000 C   0  0  0  0  0  0  0  0  0  0  0  0
  7 12  1  0  0  0  0
  5 14  2  0  0  0  0
 12 10  2  0  0  0  0
 14 16  1  0  0  0  0
  2 17  1  0  0  0  0
  2  3  1  0  0  0  0
  6  3  1  0  0  0  0
 10  9  1  0  0  0  0
 16 15  2  0  0  0  0
  2 20  1  0  0  0  0
 17 18  1  0  0  0  0
 18  1  1  0  0  0  0
  1 19  1  0  0  0  0
 19 20  1  0  0  0  0
  1 21  1  0  0  0  0
 15  4  1  0  0  0  0
 21 22  1  0  0  0  0
 13  8  2  0  0  0  0
 21 23  2  0  0  0  0
  3  4  1  0  0  0  0
 22 24  1  0  0  0  0
  8  6  1  0  0  0  0
 10 13  1  0  0  0  0
  4 11  2  0  0  0  0
  6  7  2  0  0  0  0
 11  5  1  0  0  0  0
 22 25  1  0  0  0  0
M  END
> <Molecule Name>
DNDI1435768

> <CDD Number>
CDD-1535469

> <IC50_uM>
0.62 (n=1)

$$$$

SketchEl molfile

 30 32  0  0  0  0  0  0  0  0999 V2000
    7.8674   -7.3103    0.0000 N   0  0  0  0  0  0  0  0  0  0  0  0
    7.8570   -8.1352    0.0000 C   0  0  0  0  0  0  0  0  0  0  0  0
    8.5747   -8.5400    0.0000 C   0  0  0  0  0  0  0  0  0  0  0  0
    9.2865   -9.7764    0.0000 N   0  0  0  0  0  0  0  0  0  0  0  0
    7.1382   -8.5460    0.0000 C   0  0  0  0  0  0  0  0  0  0  0  0
    6.4259   -8.1419    0.0000 C   0  0  0  0  0  0  0  0  0  0  0  0
    7.1414   -9.3771    0.0000 C   0  0  0  0  0  0  0  0  0  0  0  0
    5.7116   -9.3776    0.0000 C   0  0  0  0  0  0  0  0  0  0  0  0
    8.5744   -9.3670    0.0000 C   0  0  0  0  0  0  0  0  0  0  0  0
    5.7129   -8.5500    0.0000 C   0  0  0  0  0  0  0  0  0  0  0  0
    6.4279   -9.7905    0.0000 C   0  0  0  0  0  0  0  0  0  0  0  0
   10.0017   -9.3608    0.0000 C   0  0  0  0  0  0  0  0  0  0  0  0
    9.2780   -8.1259    0.0000 N   0  0  0  0  0  0  0  0  0  0  0  0
    9.9953   -8.5312    0.0000 C   0  0  0  0  0  0  0  0  0  0  0  0
    8.5897   -6.9118    0.0000 C   0  0  0  0  0  0  0  0  0  0  0  0
    9.2928   -7.3406    0.0000 C   0  0  0  0  0  0  0  0  0  0  0  0
   10.0128   -6.9456    0.0000 C   0  0  0  0  0  0  0  0  0  0  0  0
   10.0332   -6.1206    0.0000 N   0  0  0  0  0  0  0  0  0  0  0  0
    9.3272   -5.6922    0.0000 C   0  0  0  0  0  0  0  0  0  0  0  0
    8.6009   -6.0887    0.0000 C   0  0  0  0  0  0  0  0  0  0  0  0
   10.7573   -5.7248    0.0000 S   0  0  0  0  0  0  0  0  0  0  0  0
   11.4621   -6.1539    0.0000 C   0  0  0  0  0  0  0  0  0  0  0  0
   10.3398   -5.0047    0.0000 O   0  0  0  0  0  0  0  0  0  0  0  0
   11.1694   -5.0000    0.0000 O   0  0  0  0  0  0  0  0  0  0  0  0
   12.1862   -5.7580    0.0000 C   0  0  0  0  0  0  0  0  0  0  0  0
   11.4429   -6.9789    0.0000 C   0  0  0  0  0  0  0  0  0  0  0  0
    5.0000   -9.7895    0.0000 C   0  0  0  0  0  0  0  0  0  0  0  0
    4.2875   -9.3791    0.0000 F   0  0  0  0  0  0  0  0  0  0  0  0
    5.0008  -10.6117    0.0000 F   0  0  0  0  0  0  0  0  0  0  0  0
    4.7864   -8.9955    0.0000 F   0  0  0  0  0  0  0  0  0  0  0  0
  8 27  1  0  0  0  0
 27 28  1  0  0  0  0
 27 29  1  0  0  0  0
 27 30  1  0  0  0  0
 15 16  1  0  0  0  0
  6 10  1  0  0  0  0
  4 12  2  0  0  0  0
 10  8  2  0  0  0  0
 12 14  1  0  0  0  0
 15 20  1  0  0  0  0
 16 17  1  0  0  0  0
 17 18  1  0  0  0  0
 18 19  1  0  0  0  0
 19 20  1  0  0  0  0
  1 15  1  0  0  0  0
 18 21  1  0  0  0  0
  1  2  1  0  0  0  0
 21 22  1  0  0  0  0
  5  2  1  0  0  0  0
 21 23  2  0  0  0  0
 21 24  2  0  0  0  0
 14 13  2  0  0  0  0
 22 25  1  0  0  0  0
 13  3  1  0  0  0  0
 22 26  1  0  0  0  0
 11  7  2  0  0  0  0
  2  3  1  0  0  0  0
  7  5  1  0  0  0  0
  8 11  1  0  0  0  0
  3  9  2  0  0  0  0
  5  6  2  0  0  0  0
  9  4  1  0  0  0  0
M  END
> <Molecule Name>
DNDI1435769

> <CDD Number>
CDD-1535470

> <IC50_uM>
0.22 (n=1)

$$$$

SketchEl molfile

 29 31  0  0  0  0  0  0  0  0999 V2000
    7.8675   -7.3103    0.0000 N   0  0  0  0  0  0  0  0  0  0  0  0
    7.8571   -8.1352    0.0000 C   0  0  0  0  0  0  0  0  0  0  0  0
    8.5747   -8.5400    0.0000 C   0  0  0  0  0  0  0  0  0  0  0  0
    9.2865   -9.7764    0.0000 N   0  0  0  0  0  0  0  0  0  0  0  0
    7.1382   -8.5460    0.0000 C   0  0  0  0  0  0  0  0  0  0  0  0
    6.4259   -8.1419    0.0000 C   0  0  0  0  0  0  0  0  0  0  0  0
    7.1414   -9.3771    0.0000 C   0  0  0  0  0  0  0  0  0  0  0  0
    5.7116   -9.3776    0.0000 C   0  0  0  0  0  0  0  0  0  0  0  0
    8.5744   -9.3670    0.0000 C   0  0  0  0  0  0  0  0  0  0  0  0
    5.7129   -8.5500    0.0000 C   0  0  0  0  0  0  0  0  0  0  0  0
    6.4279   -9.7905    0.0000 C   0  0  0  0  0  0  0  0  0  0  0  0
   10.0018   -9.3608    0.0000 C   0  0  0  0  0  0  0  0  0  0  0  0
    9.2780   -8.1259    0.0000 N   0  0  0  0  0  0  0  0  0  0  0  0
    9.9954   -8.5311    0.0000 C   0  0  0  0  0  0  0  0  0  0  0  0
    8.5897   -6.9118    0.0000 C   0  0  0  0  0  0  0  0  0  0  0  0
    9.2928   -7.3406    0.0000 C   0  0  0  0  0  0  0  0  0  0  0  0
   10.0129   -6.9456    0.0000 C   0  0  0  0  0  0  0  0  0  0  0  0
   10.0332   -6.1206    0.0000 N   0  0  0  0  0  0  0  0  0  0  0  0
    9.3272   -5.6921    0.0000 C   0  0  0  0  0  0  0  0  0  0  0  0
    8.6009   -6.0886    0.0000 C   0  0  0  0  0  0  0  0  0  0  0  0
   10.7573   -5.7247    0.0000 S   0  0  0  0  0  0  0  0  0  0  0  0
   11.4622   -6.1538    0.0000 C   0  0  0  0  0  0  0  0  0  0  0  0
   10.3399   -5.0046    0.0000 O   0  0  0  0  0  0  0  0  0  0  0  0
   11.1694   -5.0000    0.0000 O   0  0  0  0  0  0  0  0  0  0  0  0
   12.1863   -5.7580    0.0000 C   0  0  0  0  0  0  0  0  0  0  0  0
    5.0000   -9.7895    0.0000 C   0  0  0  0  0  0  0  0  0  0  0  0
    4.2875   -9.3791    0.0000 F   0  0  0  0  0  0  0  0  0  0  0  0
    5.0008  -10.6117    0.0000 F   0  0  0  0  0  0  0  0  0  0  0  0
    4.7864   -8.9955    0.0000 F   0  0  0  0  0  0  0  0  0  0  0  0
  8 26  1  0  0  0  0
 26 27  1  0  0  0  0
 26 28  1  0  0  0  0
 26 29  1  0  0  0  0
 16 17  1  0  0  0  0
 17 18  1  0  0  0  0
 18 19  1  0  0  0  0
 19 20  1  0  0  0  0
  1 15  1  0  0  0  0
 18 21  1  0  0  0  0
  1  2  1  0  0  0  0
 21 22  1  0  0  0  0
  5  2  1  0  0  0  0
 21 23  2  0  0  0  0
 21 24  2  0  0  0  0
 14 13  2  0  0  0  0
 22 25  1  0  0  0  0
 13  3  1  0  0  0  0
 11  7  2  0  0  0  0
  2  3  1  0  0  0  0
  7  5  1  0  0  0  0
  8 11  1  0  0  0  0
  3  9  2  0  0  0  0
  5  6  2  0  0  0  0
  9  4  1  0  0  0  0
 15 16  1  0  0  0  0
  6 10  1  0  0  0  0
  4 12  2  0  0  0  0
 10  8  2  0  0  0  0
 12 14  1  0  0  0  0
 15 20  1  0  0  0  0
M  END
> <Molecule Name>
DNDI1435770

> <CDD Number>
CDD-1535471

> <IC50_uM>
0.49 (n=1)

$$$$

SketchEl molfile

 36 39  0  0  0  0  0  0  0  0999 V2000
    7.8674   -7.3102    0.0000 N   0  0  0  0  0  0  0  0  0  0  0  0
    7.8570   -8.1351    0.0000 C   0  0  0  0  0  0  0  0  0  0  0  0
    8.5746   -8.5399    0.0000 C   0  0  0  0  0  0  0  0  0  0  0  0
    9.2864   -9.7763    0.0000 N   0  0  0  0  0  0  0  0  0  0  0  0
    7.1382   -8.5459    0.0000 C   0  0  0  0  0  0  0  0  0  0  0  0
    6.4259   -8.1418    0.0000 C   0  0  0  0  0  0  0  0  0  0  0  0
    7.1414   -9.3770    0.0000 C   0  0  0  0  0  0  0  0  0  0  0  0
    5.7116   -9.3775    0.0000 C   0  0  0  0  0  0  0  0  0  0  0  0
    8.5744   -9.3669    0.0000 C   0  0  0  0  0  0  0  0  0  0  0  0
    5.7129   -8.5500    0.0000 C   0  0  0  0  0  0  0  0  0  0  0  0
    6.4279   -9.7904    0.0000 C   0  0  0  0  0  0  0  0  0  0  0  0
   10.0017   -9.3608    0.0000 C   0  0  0  0  0  0  0  0  0  0  0  0
    9.2779   -8.1259    0.0000 N   0  0  0  0  0  0  0  0  0  0  0  0
    9.9953   -8.5311    0.0000 C   0  0  0  0  0  0  0  0  0  0  0  0
    8.5897   -6.9118    0.0000 C   0  0  0  0  0  0  0  0  0  0  0  0
    9.2927   -7.3405    0.0000 C   0  0  0  0  0  0  0  0  0  0  0  0
   10.0128   -6.9456    0.0000 C   0  0  0  0  0  0  0  0  0  0  0  0
   10.0331   -6.1206    0.0000 N   0  0  0  0  0  0  0  0  0  0  0  0
    9.3271   -5.6921    0.0000 C   0  0  0  0  0  0  0  0  0  0  0  0
    8.6008   -6.0886    0.0000 C   0  0  0  0  0  0  0  0  0  0  0  0
   10.7572   -5.7247    0.0000 S   0  0  0  0  0  0  0  0  0  0  0  0
   11.4621   -6.1538    0.0000 C   0  0  0  0  0  0  0  0  0  0  0  0
   10.3397   -5.0046    0.0000 O   0  0  0  0  0  0  0  0  0  0  0  0
   11.1693   -5.0000    0.0000 O   0  0  0  0  0  0  0  0  0  0  0  0
   11.4395   -6.9758    0.0000 C   0  0  0  0  0  0  0  0  0  0  0  0
   12.1435   -7.4048    0.0000 C   0  0  0  0  0  0  0  0  0  0  0  0
   12.8685   -7.0089    0.0000 C   0  0  0  0  0  0  0  0  0  0  0  0
   12.8852   -6.1796    0.0000 C   0  0  0  0  0  0  0  0  0  0  0  0
   12.1805   -5.7543    0.0000 C   0  0  0  0  0  0  0  0  0  0  0  0
   13.5747   -7.4376    0.0000 C   0  0  0  0  0  0  0  0  0  0  0  0
   13.5566   -8.2635    0.0000 C   0  0  0  0  0  0  0  0  0  0  0  0
   14.2990   -7.0403    0.0000 C   0  0  0  0  0  0  0  0  0  0  0  0
    5.0000   -9.7894    0.0000 C   0  0  0  0  0  0  0  0  0  0  0  0
    4.2875   -9.3790    0.0000 F   0  0  0  0  0  0  0  0  0  0  0  0
    5.0008  -10.6116    0.0000 F   0  0  0  0  0  0  0  0  0  0  0  0
    4.7864   -8.9954    0.0000 F   0  0  0  0  0  0  0  0  0  0  0  0
  8 33  1  0  0  0  0
 33 34  1  0  0  0  0
 33 35  1  0  0  0  0
 33 36  1  0  0  0  0
 11  7  2  0  0  0  0
  2  3  1  0  0  0  0
  7  5  1  0  0  0  0
  8 11  1  0  0  0  0
  3  9  2  0  0  0  0
  5  6  2  0  0  0  0
  9  4  1  0  0  0  0
 15 16  1  0  0  0  0
  6 10  1  0  0  0  0
  4 12  2  0  0  0  0
 10  8  2  0  0  0  0
 12 14  1  0  0  0  0
 15 20  1  0  0  0  0
 22 25  2  0  0  0  0
 16 17  1  0  0  0  0
 25 26  1  0  0  0  0
 17 18  1  0  0  0  0
 26 27  2  0  0  0  0
 18 19  1  0  0  0  0
 27 28  1  0  0  0  0
 19 20  1  0  0  0  0
 28 29  2  0  0  0  0
 29 22  1  0  0  0  0
  1 15  1  0  0  0  0
 27 30  1  0  0  0  0
 18 21  1  0  0  0  0
 30 31  1  0  0  0  0
  1  2  1  0  0  0  0
 30 32  1  0  0  0  0
 21 22  1  0  0  0  0
  5  2  1  0  0  0  0
 21 23  2  0  0  0  0
 21 24  2  0  0  0  0
 14 13  2  0  0  0  0
 13  3  1  0  0  0  0
M  END
> <Molecule Name>
DNDI1435771

> <CDD Number>
CDD-1535472

> <IC50_uM>
0.1 (n=1)

$$$$

SketchEl molfile

 37 40  0  0  0  0  0  0  0  0999 V2000
    7.8673   -7.3101    0.0000 N   0  0  0  0  0  0  0  0  0  0  0  0
    7.8569   -8.1350    0.0000 C   0  0  0  0  0  0  0  0  0  0  0  0
    8.5745   -8.5398    0.0000 C   0  0  0  0  0  0  0  0  0  0  0  0
    9.2863   -9.7761    0.0000 N   0  0  0  0  0  0  0  0  0  0  0  0
    7.1381   -8.5458    0.0000 C   0  0  0  0  0  0  0  0  0  0  0  0
    6.4259   -8.1417    0.0000 C   0  0  0  0  0  0  0  0  0  0  0  0
    7.1413   -9.3769    0.0000 C   0  0  0  0  0  0  0  0  0  0  0  0
    5.7116   -9.3774    0.0000 C   0  0  0  0  0  0  0  0  0  0  0  0
    8.5742   -9.3667    0.0000 C   0  0  0  0  0  0  0  0  0  0  0  0
    5.7129   -8.5498    0.0000 C   0  0  0  0  0  0  0  0  0  0  0  0
    6.4279   -9.7903    0.0000 C   0  0  0  0  0  0  0  0  0  0  0  0
   10.0015   -9.3606    0.0000 C   0  0  0  0  0  0  0  0  0  0  0  0
    9.2778   -8.1257    0.0000 N   0  0  0  0  0  0  0  0  0  0  0  0
    9.9951   -8.5310    0.0000 C   0  0  0  0  0  0  0  0  0  0  0  0
    8.5895   -6.9117    0.0000 C   0  0  0  0  0  0  0  0  0  0  0  0
    9.2926   -7.3404    0.0000 C   0  0  0  0  0  0  0  0  0  0  0  0
   10.0126   -6.9455    0.0000 C   0  0  0  0  0  0  0  0  0  0  0  0
   10.0330   -6.1205    0.0000 N   0  0  0  0  0  0  0  0  0  0  0  0
    9.3270   -5.6921    0.0000 C   0  0  0  0  0  0  0  0  0  0  0  0
    8.6007   -6.0886    0.0000 C   0  0  0  0  0  0  0  0  0  0  0  0
   10.7570   -5.7247    0.0000 S   0  0  0  0  0  0  0  0  0  0  0  0
   11.4618   -6.1538    0.0000 C   0  0  0  0  0  0  0  0  0  0  0  0
   10.3396   -5.0046    0.0000 O   0  0  0  0  0  0  0  0  0  0  0  0
   11.1691   -5.0000    0.0000 O   0  0  0  0  0  0  0  0  0  0  0  0
   11.4392   -6.9757    0.0000 C   0  0  0  0  0  0  0  0  0  0  0  0
   12.1432   -7.4047    0.0000 C   0  0  0  0  0  0  0  0  0  0  0  0
   12.8683   -7.0088    0.0000 C   0  0  0  0  0  0  0  0  0  0  0  0
   12.8849   -6.1795    0.0000 C   0  0  0  0  0  0  0  0  0  0  0  0
   12.1802   -5.7542    0.0000 C   0  0  0  0  0  0  0  0  0  0  0  0
    5.0000   -9.7892    0.0000 C   0  0  0  0  0  0  0  0  0  0  0  0
    4.2875   -9.3789    0.0000 F   0  0  0  0  0  0  0  0  0  0  0  0
    5.0008  -10.6114    0.0000 F   0  0  0  0  0  0  0  0  0  0  0  0
    4.7864   -8.9953    0.0000 F   0  0  0  0  0  0  0  0  0  0  0  0
   13.5744   -7.4375    0.0000 C   0  0  0  0  0  0  0  0  0  0  0  0
   13.5563   -8.2633    0.0000 F   0  0  0  0  0  0  0  0  0  0  0  0
   14.2987   -7.0402    0.0000 F   0  0  0  0  0  0  0  0  0  0  0  0
   14.3675   -7.6687    0.0000 F   0  0  0  0  0  0  0  0  0  0  0  0
  8 30  1  0  0  0  0
 30 31  1  0  0  0  0
 30 32  1  0  0  0  0
 30 33  1  0  0  0  0
 27 34  1  0  0  0  0
 34 35  1  0  0  0  0
 34 36  1  0  0  0  0
 34 37  1  0  0  0  0
 16 17  1  0  0  0  0
 25 26  1  0  0  0  0
 17 18  1  0  0  0  0
 26 27  2  0  0  0  0
 18 19  1  0  0  0  0
 27 28  1  0  0  0  0
 19 20  1  0  0  0  0
 28 29  2  0  0  0  0
 29 22  1  0  0  0  0
  1 15  1  0  0  0  0
 18 21  1  0  0  0  0
  1  2  1  0  0  0  0
 21 22  1  0  0  0  0
  5  2  1  0  0  0  0
 21 23  2  0  0  0  0
 21 24  2  0  0  0  0
 14 13  2  0  0  0  0
 13  3  1  0  0  0  0
 11  7  2  0  0  0  0
  2  3  1  0  0  0  0
  7  5  1  0  0  0  0
  8 11  1  0  0  0  0
  3  9  2  0  0  0  0
  5  6  2  0  0  0  0
  9  4  1  0  0  0  0
 15 16  1  0  0  0  0
  6 10  1  0  0  0  0
  4 12  2  0  0  0  0
 10  8  2  0  0  0  0
 12 14  1  0  0  0  0
 15 20  1  0  0  0  0
 22 25  2  0  0  0  0
M  END
> <Molecule Name>
DNDI1435772

> <CDD Number>
CDD-1535473

> <IC50_uM>
0.13 (n=1)

$$$$

SketchEl molfile

 30 32  0  0  0  0  0  0  0  0999 V2000
    8.5973   -5.7249    0.0000 S   0  0  0  0  0  0  0  0  0  0  0  0
    9.3023   -6.1542    0.0000 C   0  0  0  0  0  0  0  0  0  0  0  0
    8.1797   -5.0046    0.0000 O   0  0  0  0  0  0  0  0  0  0  0  0
    9.0095   -5.0000    0.0000 O   0  0  0  0  0  0  0  0  0  0  0  0
    9.2797   -6.9764    0.0000 C   0  0  0  0  0  0  0  0  0  0  0  0
   10.0210   -5.7545    0.0000 C   0  0  0  0  0  0  0  0  0  0  0  0
    7.8799   -6.1326    0.0000 N   0  0  0  0  0  0  0  0  0  0  0  0
    7.8743   -6.9577    0.0000 C   0  0  0  0  0  0  0  0  0  0  0  0
    7.1564   -7.3615    0.0000 C   0  0  0  0  0  0  0  0  0  0  0  0
    7.1489   -8.1830    0.0000 C   0  0  0  0  0  0  0  0  0  0  0  0
    7.8587   -8.6042    0.0000 N   0  0  0  0  0  0  0  0  0  0  0  0
    8.5779   -8.1978    0.0000 C   0  0  0  0  0  0  0  0  0  0  0  0
    8.5872   -7.3701    0.0000 C   0  0  0  0  0  0  0  0  0  0  0  0
    7.8579   -9.4284    0.0000 C   0  0  0  0  0  0  0  0  0  0  0  0
    8.5757   -9.8333    0.0000 C   0  0  0  0  0  0  0  0  0  0  0  0
    9.2877  -11.0700    0.0000 N   0  0  0  0  0  0  0  0  0  0  0  0
    7.1388   -9.8393    0.0000 C   0  0  0  0  0  0  0  0  0  0  0  0
    6.4263   -9.4351    0.0000 C   0  0  0  0  0  0  0  0  0  0  0  0
    7.1420  -10.6706    0.0000 C   0  0  0  0  0  0  0  0  0  0  0  0
    5.7118  -10.6712    0.0000 C   0  0  0  0  0  0  0  0  0  0  0  0
    8.5754  -10.6605    0.0000 C   0  0  0  0  0  0  0  0  0  0  0  0
    5.7131   -9.8434    0.0000 C   0  0  0  0  0  0  0  0  0  0  0  0
    6.4283  -11.0842    0.0000 C   0  0  0  0  0  0  0  0  0  0  0  0
   10.0032  -10.6544    0.0000 C   0  0  0  0  0  0  0  0  0  0  0  0
    9.2792   -9.4191    0.0000 N   0  0  0  0  0  0  0  0  0  0  0  0
    9.9967   -9.8245    0.0000 C   0  0  0  0  0  0  0  0  0  0  0  0
    5.0000  -11.0831    0.0000 C   0  0  0  0  0  0  0  0  0  0  0  0
    4.2873  -10.6726    0.0000 F   0  0  0  0  0  0  0  0  0  0  0  0
    5.0009  -11.9056    0.0000 F   0  0  0  0  0  0  0  0  0  0  0  0
    4.7863  -10.2889    0.0000 F   0  0  0  0  0  0  0  0  0  0  0  0
 20 27  1  0  0  0  0
 27 28  1  0  0  0  0
 27 29  1  0  0  0  0
 27 30  1  0  0  0  0
 11 12  1  0  0  0  0
 12 13  1  0  0  0  0
  7  8  1  0  0  0  0
  8  9  1  0  0  0  0
  8 13  1  0  0  0  0
 17 14  1  0  0  0  0
 26 25  2  0  0  0  0
 25 15  1  0  0  0  0
 23 19  2  0  0  0  0
 14 15  1  0  0  0  0
 19 17  1  0  0  0  0
 20 23  1  0  0  0  0
 15 21  2  0  0  0  0
 17 18  2  0  0  0  0
 21 16  1  0  0  0  0
 18 22  1  0  0  0  0
 16 24  2  0  0  0  0
 22 20  2  0  0  0  0
 24 26  1  0  0  0  0
 14 11  1  0  0  0  0
  7  1  1  0  0  0  0
  6  2  1  0  0  0  0
  1  2  1  0  0  0  0
  1  3  2  0  0  0  0
  1  4  2  0  0  0  0
  2  5  1  0  0  0  0
  9 10  1  0  0  0  0
 10 11  1  0  0  0  0
M  END
> <Molecule Name>
DNDI1435773

> <CDD Number>
CDD-1535474

> <IC50_uM>
0.56 (n=1)

$$$$

SketchEl molfile

 29 32  0  0  0  0  0  0  0  0999 V2000
    7.8821   -6.6701    0.0000 S   0  0  0  0  0  0  0  0  0  0  0  0
    8.5890   -6.2450    0.0000 C   0  0  0  0  0  0  0  0  0  0  0  0
    7.0508   -6.7058    0.0000 O   0  0  0  0  0  0  0  0  0  0  0  0
    7.4315   -5.9690    0.0000 O   0  0  0  0  0  0  0  0  0  0  0  0
    7.8771   -7.4933    0.0000 N   0  0  0  0  0  0  0  0  0  0  0  0
    7.1596   -7.8969    0.0000 C   0  0  0  0  0  0  0  0  0  0  0  0
    7.1521   -8.7178    0.0000 C   0  0  0  0  0  0  0  0  0  0  0  0
    7.8615   -9.1388    0.0000 N   0  0  0  0  0  0  0  0  0  0  0  0
    8.5802   -8.7326    0.0000 C   0  0  0  0  0  0  0  0  0  0  0  0
    8.5895   -7.9054    0.0000 C   0  0  0  0  0  0  0  0  0  0  0  0
    7.8606   -9.9624    0.0000 C   0  0  0  0  0  0  0  0  0  0  0  0
    8.5780  -10.3671    0.0000 C   0  0  0  0  0  0  0  0  0  0  0  0
    9.2896  -11.6031    0.0000 N   0  0  0  0  0  0  0  0  0  0  0  0
    7.1420  -10.3731    0.0000 C   0  0  0  0  0  0  0  0  0  0  0  0
    6.4300   -9.9692    0.0000 C   0  0  0  0  0  0  0  0  0  0  0  0
    7.1452  -11.2039    0.0000 C   0  0  0  0  0  0  0  0  0  0  0  0
    5.7159  -11.2045    0.0000 C   0  0  0  0  0  0  0  0  0  0  0  0
    8.5777  -11.1938    0.0000 C   0  0  0  0  0  0  0  0  0  0  0  0
    5.7172  -10.3772    0.0000 C   0  0  0  0  0  0  0  0  0  0  0  0
    6.4320  -11.6172    0.0000 C   0  0  0  0  0  0  0  0  0  0  0  0
   10.0046  -11.1877    0.0000 C   0  0  0  0  0  0  0  0  0  0  0  0
    9.2811   -9.9532    0.0000 C   0  0  0  0  0  0  0  0  0  0  0  0
    9.9982  -10.3583    0.0000 C   0  0  0  0  0  0  0  0  0  0  0  0
    5.0000  -11.6174    0.0000 Cl  0  0  0  0  0  0  0  0  0  0  0  0
    9.3091   -6.6487    0.0000 C   0  0  0  0  0  0  0  0  0  0  0  0
   10.0140   -6.2271    0.0000 C   0  0  0  0  0  0  0  0  0  0  0  0
   10.0035   -5.4019    0.0000 C   0  0  0  0  0  0  0  0  0  0  0  0
    9.2820   -5.0000    0.0000 C   0  0  0  0  0  0  0  0  0  0  0  0
    8.5709   -5.4234    0.0000 C   0  0  0  0  0  0  0  0  0  0  0  0
  5  6  1  0  0  0  0
  5 10  1  0  0  0  0
 14 11  1  0  0  0  0
 23 22  2  0  0  0  0
 22 12  1  0  0  0  0
 20 16  2  0  0  0  0
 11 12  1  0  0  0  0
 16 14  1  0  0  0  0
 17 20  1  0  0  0  0
 12 18  2  0  0  0  0
 14 15  2  0  0  0  0
 18 13  1  0  0  0  0
 15 19  1  0  0  0  0
 13 21  2  0  0  0  0
 19 17  2  0  0  0  0
 21 23  1  0  0  0  0
 11  8  1  0  0  0  0
  6  7  1  0  0  0  0
  7  8  1  0  0  0  0
  1  4  2  0  0  0  0
 17 24  1  0  0  0  0
  5  1  1  0  0  0  0
  2 25  1  0  0  0  0
  1  2  1  0  0  0  0
  1  3  2  0  0  0  0
  8  9  1  0  0  0  0
  9 10  1  0  0  0  0
  2 29  1  0  0  0  0
 25 26  1  0  0  0  0
 26 27  1  0  0  0  0
 27 28  1  0  0  0  0
 28 29  1  0  0  0  0
M  END
> <Molecule Name>
DNDI1435774

> <CDD Number>
CDD-1535475

> <IC50_uM>
0.01 (n=1)

$$$$

SketchEl molfile

 26 28  0  0  0  0  0  0  0  0999 V2000
    7.8821   -6.2468    0.0000 S   0  0  0  0  0  0  0  0  0  0  0  0
    8.5891   -5.8216    0.0000 C   0  0  0  0  0  0  0  0  0  0  0  0
    7.0508   -6.2825    0.0000 O   0  0  0  0  0  0  0  0  0  0  0  0
    7.4315   -5.5457    0.0000 O   0  0  0  0  0  0  0  0  0  0  0  0
    7.8771   -7.0700    0.0000 N   0  0  0  0  0  0  0  0  0  0  0  0
    7.1596   -7.4735    0.0000 C   0  0  0  0  0  0  0  0  0  0  0  0
    7.1521   -8.2945    0.0000 C   0  0  0  0  0  0  0  0  0  0  0  0
    7.8615   -8.7155    0.0000 N   0  0  0  0  0  0  0  0  0  0  0  0
    8.5802   -8.3093    0.0000 C   0  0  0  0  0  0  0  0  0  0  0  0
    8.5895   -7.4821    0.0000 C   0  0  0  0  0  0  0  0  0  0  0  0
    7.8606   -9.5391    0.0000 C   0  0  0  0  0  0  0  0  0  0  0  0
    8.5780   -9.9438    0.0000 C   0  0  0  0  0  0  0  0  0  0  0  0
    9.2896  -11.1798    0.0000 N   0  0  0  0  0  0  0  0  0  0  0  0
    7.1421   -9.9498    0.0000 C   0  0  0  0  0  0  0  0  0  0  0  0
    6.4300   -9.5458    0.0000 C   0  0  0  0  0  0  0  0  0  0  0  0
    7.1452  -10.7806    0.0000 C   0  0  0  0  0  0  0  0  0  0  0  0
    5.7159  -10.7812    0.0000 C   0  0  0  0  0  0  0  0  0  0  0  0
    8.5778  -10.7705    0.0000 C   0  0  0  0  0  0  0  0  0  0  0  0
    5.7172   -9.9538    0.0000 C   0  0  0  0  0  0  0  0  0  0  0  0
    6.4320  -11.1939    0.0000 C   0  0  0  0  0  0  0  0  0  0  0  0
   10.0046  -10.7644    0.0000 C   0  0  0  0  0  0  0  0  0  0  0  0
    9.2811   -9.5299    0.0000 C   0  0  0  0  0  0  0  0  0  0  0  0
    9.9982   -9.9350    0.0000 C   0  0  0  0  0  0  0  0  0  0  0  0
    5.0000  -11.1941    0.0000 Cl  0  0  0  0  0  0  0  0  0  0  0  0
    9.3091   -6.2254    0.0000 C   0  0  0  0  0  0  0  0  0  0  0  0
    8.5709   -5.0000    0.0000 C   0  0  0  0  0  0  0  0  0  0  0  0
  5  6  1  0  0  0  0
  5 10  1  0  0  0  0
 14 11  1  0  0  0  0
 23 22  2  0  0  0  0
 22 12  1  0  0  0  0
 20 16  2  0  0  0  0
 11 12  1  0  0  0  0
 16 14  1  0  0  0  0
 17 20  1  0  0  0  0
 12 18  2  0  0  0  0
 14 15  2  0  0  0  0
 18 13  1  0  0  0  0
 15 19  1  0  0  0  0
 13 21  2  0  0  0  0
 19 17  2  0  0  0  0
 21 23  1  0  0  0  0
 11  8  1  0  0  0  0
  6  7  1  0  0  0  0
  7  8  1  0  0  0  0
  1  4  2  0  0  0  0
 17 24  1  0  0  0  0
  5  1  1  0  0  0  0
  2 25  1  0  0  0  0
  1  2  1  0  0  0  0
  1  3  2  0  0  0  0
  8  9  1  0  0  0  0
  9 10  1  0  0  0  0
  2 26  1  0  0  0  0
M  END
> <Molecule Name>
DNDI1435775

> <CDD Number>
CDD-1535476

> <IC50_uM>
0.028 (n=1)

$$$$

SketchEl molfile

 31 34  0  0  0  0  0  0  0  0999 V2000
    7.8271   -6.7113    0.0000 S   0  0  0  0  0  0  0  0  0  0  0  0
    6.9471   -6.6996    0.0000 O   0  0  0  0  0  0  0  0  0  0  0  0
    7.8135   -7.5146    0.0000 N   0  0  0  0  0  0  0  0  0  0  0  0
    7.3426   -5.9033    0.0000 O   0  0  0  0  0  0  0  0  0  0  0  0
    7.7925   -9.1211    0.0000 N   0  0  0  0  0  0  0  0  0  0  0  0
    7.7824   -9.9244    0.0000 C   0  0  0  0  0  0  0  0  0  0  0  0
    8.4812  -10.3187    0.0000 C   0  0  0  0  0  0  0  0  0  0  0  0
    9.1744  -11.5227    0.0000 N   0  0  0  0  0  0  0  0  0  0  0  0
    7.0823  -10.3245    0.0000 C   0  0  0  0  0  0  0  0  0  0  0  0
    6.3886   -9.9310    0.0000 C   0  0  0  0  0  0  0  0  0  0  0  0
    7.0854  -11.1339    0.0000 C   0  0  0  0  0  0  0  0  0  0  0  0
    5.0000  -11.5355    0.0000 Cl  0  0  0  0  0  0  0  0  0  0  0  0
    5.6930  -11.1344    0.0000 C   0  0  0  0  0  0  0  0  0  0  0  0
    8.4810  -11.1240    0.0000 C   0  0  0  0  0  0  0  0  0  0  0  0
    5.6943  -10.3285    0.0000 C   0  0  0  0  0  0  0  0  0  0  0  0
    6.3906  -11.5365    0.0000 C   0  0  0  0  0  0  0  0  0  0  0  0
    9.8710  -11.1181    0.0000 C   0  0  0  0  0  0  0  0  0  0  0  0
    9.1662   -9.9154    0.0000 C   0  0  0  0  0  0  0  0  0  0  0  0
    9.8647  -10.3101    0.0000 N   0  0  0  0  0  0  0  0  0  0  0  0
    8.4959   -8.7331    0.0000 C   0  0  0  0  0  0  0  0  0  0  0  0
    8.4991   -7.9337    0.0000 C   0  0  0  0  0  0  0  0  0  0  0  0
    7.1094   -7.9106    0.0000 C   0  0  0  0  0  0  0  0  0  0  0  0
    7.0952   -8.7167    0.0000 C   0  0  0  0  0  0  0  0  0  0  0  0
    8.5852   -6.2895    0.0000 C   0  0  0  0  0  0  0  0  0  0  0  0
    9.3286   -6.7379    0.0000 C   0  0  0  0  0  0  0  0  0  0  0  0
   10.0907   -6.3169    0.0000 C   0  0  0  0  0  0  0  0  0  0  0  0
   10.1000   -5.4493    0.0000 C   0  0  0  0  0  0  0  0  0  0  0  0
    9.3498   -5.0000    0.0000 C   0  0  0  0  0  0  0  0  0  0  0  0
    8.5954   -5.4281    0.0000 C   0  0  0  0  0  0  0  0  0  0  0  0
    7.7820  -11.5335    0.0000 F   0  0  0  0  0  0  0  0  0  0  0  0
   10.8572   -5.0255    0.0000 Cl  0  0  0  0  0  0  0  0  0  0  0  0
 16 11  2  0  0  0  0
  6  7  1  0  0  0  0
 11  9  1  0  0  0  0
 13 16  1  0  0  0  0
  7 14  2  0  0  0  0
  9 10  2  0  0  0  0
  1  2  2  0  0  0  0
  1  3  1  0  0  0  0
  1  4  2  0  0  0  0
 14  8  1  0  0  0  0
 10 15  1  0  0  0  0
  1 24  1  0  0  0  0
  8 17  2  0  0  0  0
 15 13  2  0  0  0  0
 17 19  1  0  0  0  0
  5 20  1  0  0  0  0
  5  6  1  0  0  0  0
  9  6  1  0  0  0  0
 24 25  2  0  0  0  0
 13 12  1  0  0  0  0
 25 26  1  0  0  0  0
 19 18  2  0  0  0  0
 26 27  2  0  0  0  0
  5 23  1  0  0  0  0
 27 28  1  0  0  0  0
 20 21  1  0  0  0  0
 28 29  2  0  0  0  0
 29 24  1  0  0  0  0
 21  3  1  0  0  0  0
  3 22  1  0  0  0  0
 22 23  1  0  0  0  0
 11 30  1  0  0  0  0
 18  7  1  0  0  0  0
 27 31  1  0  0  0  0
M  END
> <Molecule Name>
DNDI1435818

> <CDD Number>
CDD-1535477

> <IC50_uM>
0.06 (n=1)

$$$$

SketchEl molfile

 29 32  0  0  0  0  0  0  0  0999 V2000
    7.8344   -6.7157    0.0000 C   0  0  0  0  0  0  0  0  0  0  0  0
    7.8208   -7.5211    0.0000 N   0  0  0  0  0  0  0  0  0  0  0  0
    7.7997   -9.1318    0.0000 N   0  0  0  0  0  0  0  0  0  0  0  0
    7.7895   -9.9372    0.0000 C   0  0  0  0  0  0  0  0  0  0  0  0
    8.4902  -10.3324    0.0000 C   0  0  0  0  0  0  0  0  0  0  0  0
    9.1852  -11.5396    0.0000 N   0  0  0  0  0  0  0  0  0  0  0  0
    7.0877  -10.3383    0.0000 C   0  0  0  0  0  0  0  0  0  0  0  0
    6.3922   -9.9437    0.0000 C   0  0  0  0  0  0  0  0  0  0  0  0
    7.0908  -11.1497    0.0000 C   0  0  0  0  0  0  0  0  0  0  0  0
    5.0000  -11.5524    0.0000 Cl  0  0  0  0  0  0  0  0  0  0  0  0
    5.6948  -11.1503    0.0000 C   0  0  0  0  0  0  0  0  0  0  0  0
    8.4899  -11.1399    0.0000 C   0  0  0  0  0  0  0  0  0  0  0  0
    5.6961  -10.3422    0.0000 C   0  0  0  0  0  0  0  0  0  0  0  0
    6.3942  -11.5534    0.0000 C   0  0  0  0  0  0  0  0  0  0  0  0
    9.8836  -11.1339    0.0000 C   0  0  0  0  0  0  0  0  0  0  0  0
    9.1769   -9.9281    0.0000 C   0  0  0  0  0  0  0  0  0  0  0  0
    9.8773  -10.3238    0.0000 N   0  0  0  0  0  0  0  0  0  0  0  0
    8.5049   -8.7427    0.0000 C   0  0  0  0  0  0  0  0  0  0  0  0
    8.5081   -7.9413    0.0000 C   0  0  0  0  0  0  0  0  0  0  0  0
    7.1148   -7.9181    0.0000 C   0  0  0  0  0  0  0  0  0  0  0  0
    7.1006   -8.7263    0.0000 C   0  0  0  0  0  0  0  0  0  0  0  0
    8.5944   -6.2928    0.0000 C   0  0  0  0  0  0  0  0  0  0  0  0
    9.3398   -6.7425    0.0000 C   0  0  0  0  0  0  0  0  0  0  0  0
   10.1038   -6.3203    0.0000 C   0  0  0  0  0  0  0  0  0  0  0  0
   10.1132   -5.4504    0.0000 C   0  0  0  0  0  0  0  0  0  0  0  0
    9.3610   -5.0000    0.0000 C   0  0  0  0  0  0  0  0  0  0  0  0
    8.6046   -5.4293    0.0000 C   0  0  0  0  0  0  0  0  0  0  0  0
    7.7891  -11.5504    0.0000 F   0  0  0  0  0  0  0  0  0  0  0  0
    6.9813   -6.2450    0.0000 O   0  0  0  0  0  0  0  0  0  0  0  0
 14  9  2  0  0  0  0
  4  5  1  0  0  0  0
  9  7  1  0  0  0  0
 11 14  1  0  0  0  0
  5 12  2  0  0  0  0
  7  8  2  0  0  0  0
  1  2  1  0  0  0  0
 12  6  1  0  0  0  0
  8 13  1  0  0  0  0
  1 22  1  0  0  0  0
  6 15  2  0  0  0  0
 13 11  2  0  0  0  0
 15 17  1  0  0  0  0
  3 18  1  0  0  0  0
  3  4  1  0  0  0  0
  7  4  1  0  0  0  0
 22 23  2  0  0  0  0
 11 10  1  0  0  0  0
 23 24  1  0  0  0  0
 17 16  2  0  0  0  0
 24 25  2  0  0  0  0
  3 21  1  0  0  0  0
 25 26  1  0  0  0  0
 18 19  1  0  0  0  0
 26 27  2  0  0  0  0
 27 22  1  0  0  0  0
 19  2  1  0  0  0  0
  2 20  1  0  0  0  0
 20 21  1  0  0  0  0
  9 28  1  0  0  0  0
 16  5  1  0  0  0  0
  1 29  2  0  0  0  0
M  END
> <Molecule Name>
DNDI1435819

> <CDD Number>
CDD-1535478

> <IC50_uM>
0.22 (n=1)

$$$$

SketchEl molfile

 29 32  0  0  0  0  0  0  0  0999 V2000
    7.0877  -10.3383    0.0000 C   0  0  0  0  0  0  0  0  0  0  0  0
    7.8344   -6.7157    0.0000 C   0  0  0  0  0  0  0  0  0  0  0  0
    7.7895   -9.9372    0.0000 C   0  0  0  0  0  0  0  0  0  0  0  0
    7.8208   -7.5211    0.0000 N   0  0  0  0  0  0  0  0  0  0  0  0
    7.7997   -9.1318    0.0000 N   0  0  0  0  0  0  0  0  0  0  0  0
    7.0908  -11.1497    0.0000 C   0  0  0  0  0  0  0  0  0  0  0  0
    8.4902  -10.3324    0.0000 C   0  0  0  0  0  0  0  0  0  0  0  0
    6.3922   -9.9437    0.0000 C   0  0  0  0  0  0  0  0  0  0  0  0
    6.3942  -11.5534    0.0000 C   0  0  0  0  0  0  0  0  0  0  0  0
    6.9813   -6.2450    0.0000 O   0  0  0  0  0  0  0  0  0  0  0  0
    9.8773  -10.3238    0.0000 N   0  0  0  0  0  0  0  0  0  0  0  0
    9.1852  -11.5396    0.0000 N   0  0  0  0  0  0  0  0  0  0  0  0
    7.1148   -7.9181    0.0000 C   0  0  0  0  0  0  0  0  0  0  0  0
    8.5081   -7.9413    0.0000 C   0  0  0  0  0  0  0  0  0  0  0  0
    7.1006   -8.7263    0.0000 C   0  0  0  0  0  0  0  0  0  0  0  0
    8.5049   -8.7427    0.0000 C   0  0  0  0  0  0  0  0  0  0  0  0
    8.5944   -6.2928    0.0000 C   0  0  0  0  0  0  0  0  0  0  0  0
    9.8836  -11.1339    0.0000 C   0  0  0  0  0  0  0  0  0  0  0  0
    7.7891  -11.5504    0.0000 F   0  0  0  0  0  0  0  0  0  0  0  0
    5.6948  -11.1503    0.0000 C   0  0  0  0  0  0  0  0  0  0  0  0
    5.0000  -11.5524    0.0000 Cl  0  0  0  0  0  0  0  0  0  0  0  0
    5.6961  -10.3422    0.0000 C   0  0  0  0  0  0  0  0  0  0  0  0
    8.4899  -11.1399    0.0000 C   0  0  0  0  0  0  0  0  0  0  0  0
    9.1769   -9.9281    0.0000 C   0  0  0  0  0  0  0  0  0  0  0  0
    9.3398   -6.7425    0.0000 C   0  0  0  0  0  0  0  0  0  0  0  0
    8.6046   -5.4293    0.0000 C   0  0  0  0  0  0  0  0  0  0  0  0
    9.3610   -5.0000    0.0000 C   0  0  0  0  0  0  0  0  0  0  0  0
   10.1038   -6.3203    0.0000 C   0  0  0  0  0  0  0  0  0  0  0  0
   10.1132   -5.4504    0.0000 C   0  0  0  0  0  0  0  0  0  0  0  0
  9  6  2  0  0  0  0
  3  7  1  0  0  0  0
  6  1  1  0  0  0  0
 20  9  1  0  0  0  0
  7 23  2  0  0  0  0
  1  8  2  0  0  0  0
  2  4  1  0  0  0  0
 23 12  1  0  0  0  0
  8 22  1  0  0  0  0
  2 17  1  0  0  0  0
 12 18  2  0  0  0  0
 22 20  2  0  0  0  0
 18 11  1  0  0  0  0
  5 16  1  0  0  0  0
  5  3  1  0  0  0  0
  1  3  1  0  0  0  0
 17 25  1  0  0  0  0
 20 21  1  0  0  0  0
 25 28  1  0  0  0  0
 11 24  2  0  0  0  0
 28 29  1  0  0  0  0
  5 15  1  0  0  0  0
 29 27  1  0  0  0  0
 16 14  1  0  0  0  0
 27 26  1  0  0  0  0
 26 17  1  0  0  0  0
 14  4  1  0  0  0  0
  4 13  1  0  0  0  0
 13 15  1  0  0  0  0
  6 19  1  0  0  0  0
 24  7  1  0  0  0  0
  2 10  2  0  0  0  0
M  END
> <Molecule Name>
DNDI1435820

> <CDD Number>
CDD-1535479

> <IC50_uM>
0.15 (n=1)

$$$$

SketchEl molfile

 27 29  0  0  0  0  0  0  0  0999 V2000
    7.1010   -9.9464    0.0000 C   0  0  0  0  0  0  0  0  0  0  0  0
    7.8524   -6.3008    0.0000 S   0  0  0  0  0  0  0  0  0  0  0  0
    7.8073   -9.5428    0.0000 C   0  0  0  0  0  0  0  0  0  0  0  0
    7.8388   -7.1113    0.0000 N   0  0  0  0  0  0  0  0  0  0  0  0
    7.8175   -8.7322    0.0000 N   0  0  0  0  0  0  0  0  0  0  0  0
    7.1041  -10.7631    0.0000 C   0  0  0  0  0  0  0  0  0  0  0  0
    8.5125   -9.9406    0.0000 C   0  0  0  0  0  0  0  0  0  0  0  0
    6.4011   -9.5494    0.0000 C   0  0  0  0  0  0  0  0  0  0  0  0
    6.4031  -11.1693    0.0000 C   0  0  0  0  0  0  0  0  0  0  0  0
    6.9939   -5.9637    0.0000 O   0  0  0  0  0  0  0  0  0  0  0  0
    9.9084   -9.9319    0.0000 N   0  0  0  0  0  0  0  0  0  0  0  0
    9.2118  -11.1554    0.0000 N   0  0  0  0  0  0  0  0  0  0  0  0
    7.1283   -7.5109    0.0000 C   0  0  0  0  0  0  0  0  0  0  0  0
    8.5305   -7.5342    0.0000 C   0  0  0  0  0  0  0  0  0  0  0  0
    7.1140   -8.3242    0.0000 C   0  0  0  0  0  0  0  0  0  0  0  0
    8.5272   -8.3407    0.0000 C   0  0  0  0  0  0  0  0  0  0  0  0
    9.9147  -10.7471    0.0000 C   0  0  0  0  0  0  0  0  0  0  0  0
    8.6173   -5.8752    0.0000 C   0  0  0  0  0  0  0  0  0  0  0  0
    7.8069  -11.1663    0.0000 F   0  0  0  0  0  0  0  0  0  0  0  0
    5.6993  -10.7636    0.0000 C   0  0  0  0  0  0  0  0  0  0  0  0
    5.0000  -11.1683    0.0000 Cl  0  0  0  0  0  0  0  0  0  0  0  0
    5.7005   -9.9504    0.0000 C   0  0  0  0  0  0  0  0  0  0  0  0
    8.5122  -10.7531    0.0000 C   0  0  0  0  0  0  0  0  0  0  0  0
    9.2035   -9.5337    0.0000 C   0  0  0  0  0  0  0  0  0  0  0  0
    7.6010   -5.4148    0.0000 O   0  0  0  0  0  0  0  0  0  0  0  0
    9.3683   -6.3249    0.0000 C   0  0  0  0  0  0  0  0  0  0  0  0
    8.6312   -5.0000    0.0000 C   0  0  0  0  0  0  0  0  0  0  0  0
  6  1  1  0  0  0  0
 20  9  1  0  0  0  0
  7 23  2  0  0  0  0
  1  8  2  0  0  0  0
  2  4  1  0  0  0  0
 23 12  1  0  0  0  0
  8 22  1  0  0  0  0
  2 18  1  0  0  0  0
 12 17  2  0  0  0  0
 22 20  2  0  0  0  0
 17 11  1  0  0  0  0
  5 16  1  0  0  0  0
  5  3  1  0  0  0  0
  1  3  1  0  0  0  0
 20 21  1  0  0  0  0
 11 24  2  0  0  0  0
  5 15  1  0  0  0  0
 16 14  1  0  0  0  0
 14  4  1  0  0  0  0
  4 13  1  0  0  0  0
 13 15  1  0  0  0  0
  6 19  1  0  0  0  0
 24  7  1  0  0  0  0
  2 10  2  0  0  0  0
  2 25  2  0  0  0  0
  9  6  2  0  0  0  0
 18 26  1  0  0  0  0
  3  7  1  0  0  0  0
 18 27  1  0  0  0  0
M  END
> <Molecule Name>
DNDI1435821

> <CDD Number>
CDD-1535480

> <IC50_uM>
0.12 (n=1)

$$$$

SketchEl molfile

 32 35  0  0  0  0  0  0  0  0999 V2000
   10.7283   -6.1916    0.0000 S   0  0  0  0  0  0  0  0  0  0  0  0
   11.4332   -6.6208    0.0000 C   0  0  0  0  0  0  0  0  0  0  0  0
   10.3108   -5.4715    0.0000 O   0  0  0  0  0  0  0  0  0  0  0  0
   11.1404   -5.4669    0.0000 O   0  0  0  0  0  0  0  0  0  0  0  0
   12.1516   -6.2212    0.0000 C   0  0  0  0  0  0  0  0  0  0  0  0
    7.8557   -7.8156    0.0000 N   0  0  0  0  0  0  0  0  0  0  0  0
    8.5729   -7.4081    0.0000 C   0  0  0  0  0  0  0  0  0  0  0  0
    9.2813   -7.8279    0.0000 C   0  0  0  0  0  0  0  0  0  0  0  0
    9.9964   -7.4239    0.0000 C   0  0  0  0  0  0  0  0  0  0  0  0
   10.0063   -6.5987    0.0000 N   0  0  0  0  0  0  0  0  0  0  0  0
    9.2950   -6.1792    0.0000 C   0  0  0  0  0  0  0  0  0  0  0  0
    8.5737   -6.5848    0.0000 C   0  0  0  0  0  0  0  0  0  0  0  0
    7.8617   -8.6474    0.0000 C   0  0  0  0  0  0  0  0  0  0  0  0
    8.5793   -9.0523    0.0000 C   0  0  0  0  0  0  0  0  0  0  0  0
    9.2912  -10.2887    0.0000 N   0  0  0  0  0  0  0  0  0  0  0  0
    7.1428   -9.0583    0.0000 C   0  0  0  0  0  0  0  0  0  0  0  0
    6.4305   -8.6541    0.0000 C   0  0  0  0  0  0  0  0  0  0  0  0
    7.1460   -9.8894    0.0000 C   0  0  0  0  0  0  0  0  0  0  0  0
    5.7162   -9.8899    0.0000 C   0  0  0  0  0  0  0  0  0  0  0  0
    8.5791   -9.8793    0.0000 C   0  0  0  0  0  0  0  0  0  0  0  0
    5.7175   -9.0623    0.0000 C   0  0  0  0  0  0  0  0  0  0  0  0
    6.4325  -10.3028    0.0000 C   0  0  0  0  0  0  0  0  0  0  0  0
   10.0065   -9.8731    0.0000 C   0  0  0  0  0  0  0  0  0  0  0  0
    9.2827   -8.6382    0.0000 N   0  0  0  0  0  0  0  0  0  0  0  0
   10.0000   -9.0434    0.0000 C   0  0  0  0  0  0  0  0  0  0  0  0
    5.0000  -10.3030    0.0000 F   0  0  0  0  0  0  0  0  0  0  0  0
    7.8613  -10.2998    0.0000 F   0  0  0  0  0  0  0  0  0  0  0  0
   12.8531   -6.6441    0.0000 C   0  0  0  0  0  0  0  0  0  0  0  0
   13.5710   -6.2452    0.0000 C   0  0  0  0  0  0  0  0  0  0  0  0
   13.5847   -5.4223    0.0000 C   0  0  0  0  0  0  0  0  0  0  0  0
   12.8744   -5.0000    0.0000 C   0  0  0  0  0  0  0  0  0  0  0  0
   12.1594   -5.4013    0.0000 C   0  0  0  0  0  0  0  0  0  0  0  0
  7  8  1  0  0  0  0
  7 12  1  0  0  0  0
  8  9  1  0  0  0  0
  9 10  1  0  0  0  0
  1  2  1  0  0  0  0
 16 13  1  0  0  0  0
 25 24  2  0  0  0  0
 24 14  1  0  0  0  0
 22 18  2  0  0  0  0
 13 14  1  0  0  0  0
 18 16  1  0  0  0  0
 19 22  1  0  0  0  0
 14 20  2  0  0  0  0
 16 17  2  0  0  0  0
 20 15  1  0  0  0  0
 17 21  1  0  0  0  0
 15 23  2  0  0  0  0
 21 19  2  0  0  0  0
 23 25  1  0  0  0  0
  1  3  2  0  0  0  0
 19 26  1  0  0  0  0
  1  4  2  0  0  0  0
 18 27  1  0  0  0  0
 13  6  1  0  0  0  0
 10  1  1  0  0  0  0
  5 28  2  0  0  0  0
  5  2  1  0  0  0  0
 28 29  1  0  0  0  0
 10 11  1  0  0  0  0
 29 30  2  0  0  0  0
 11 12  1  0  0  0  0
 30 31  1  0  0  0  0
  6  7  1  0  0  0  0
 31 32  2  0  0  0  0
 32  5  1  0  0  0  0
M  END
> <Molecule Name>
DNDI1435822

> <CDD Number>
CDD-1535481

> <IC50_uM>
0.19 (n=1)

$$$$

SketchEl molfile

 29 31  0  0  0  0  0  0  0  0999 V2000
   10.7255   -5.7899    0.0000 S   0  0  0  0  0  0  0  0  0  0  0  0
   11.4300   -6.2188    0.0000 C   0  0  0  0  0  0  0  0  0  0  0  0
   10.3082   -5.0701    0.0000 O   0  0  0  0  0  0  0  0  0  0  0  0
   11.1374   -5.0655    0.0000 O   0  0  0  0  0  0  0  0  0  0  0  0
   12.1482   -5.8195    0.0000 C   0  0  0  0  0  0  0  0  0  0  0  0
    7.8543   -7.4131    0.0000 N   0  0  0  0  0  0  0  0  0  0  0  0
    8.5712   -7.0058    0.0000 C   0  0  0  0  0  0  0  0  0  0  0  0
    9.2793   -7.4254    0.0000 C   0  0  0  0  0  0  0  0  0  0  0  0
    9.9940   -7.0216    0.0000 C   0  0  0  0  0  0  0  0  0  0  0  0
   10.0039   -6.1968    0.0000 N   0  0  0  0  0  0  0  0  0  0  0  0
    9.2929   -5.7774    0.0000 C   0  0  0  0  0  0  0  0  0  0  0  0
    8.5720   -6.1829    0.0000 C   0  0  0  0  0  0  0  0  0  0  0  0
    7.8603   -8.2445    0.0000 C   0  0  0  0  0  0  0  0  0  0  0  0
    8.5776   -8.6492    0.0000 C   0  0  0  0  0  0  0  0  0  0  0  0
    9.2891   -9.8850    0.0000 N   0  0  0  0  0  0  0  0  0  0  0  0
    7.1418   -8.6552    0.0000 C   0  0  0  0  0  0  0  0  0  0  0  0
    6.4298   -8.2512    0.0000 C   0  0  0  0  0  0  0  0  0  0  0  0
    7.1450   -9.4859    0.0000 C   0  0  0  0  0  0  0  0  0  0  0  0
    5.7159   -9.4864    0.0000 C   0  0  0  0  0  0  0  0  0  0  0  0
    8.5773   -9.4758    0.0000 C   0  0  0  0  0  0  0  0  0  0  0  0
    5.7171   -8.6592    0.0000 C   0  0  0  0  0  0  0  0  0  0  0  0
    6.4318   -9.8991    0.0000 C   0  0  0  0  0  0  0  0  0  0  0  0
   10.0040   -9.4696    0.0000 C   0  0  0  0  0  0  0  0  0  0  0  0
    9.2806   -8.2353    0.0000 N   0  0  0  0  0  0  0  0  0  0  0  0
    9.9976   -8.6403    0.0000 C   0  0  0  0  0  0  0  0  0  0  0  0
    5.0000   -9.8993    0.0000 F   0  0  0  0  0  0  0  0  0  0  0  0
    7.8599   -9.8961    0.0000 F   0  0  0  0  0  0  0  0  0  0  0  0
   12.1559   -5.0000    0.0000 C   0  0  0  0  0  0  0  0  0  0  0  0
   12.8545   -6.2394    0.0000 C   0  0  0  0  0  0  0  0  0  0  0  0
  7  8  1  0  0  0  0
  7 12  1  0  0  0  0
  8  9  1  0  0  0  0
  9 10  1  0  0  0  0
  1  2  1  0  0  0  0
 16 13  1  0  0  0  0
 25 24  2  0  0  0  0
 24 14  1  0  0  0  0
 22 18  2  0  0  0  0
 13 14  1  0  0  0  0
 18 16  1  0  0  0  0
 19 22  1  0  0  0  0
 14 20  2  0  0  0  0
 16 17  2  0  0  0  0
 20 15  1  0  0  0  0
 17 21  1  0  0  0  0
 15 23  2  0  0  0  0
 21 19  2  0  0  0  0
 23 25  1  0  0  0  0
  1  3  2  0  0  0  0
 19 26  1  0  0  0  0
  1  4  2  0  0  0  0
 18 27  1  0  0  0  0
 13  6  1  0  0  0  0
 10  1  1  0  0  0  0
  5  2  1  0  0  0  0
 10 11  1  0  0  0  0
 11 12  1  0  0  0  0
  6  7  1  0  0  0  0
 28  5  1  0  0  0  0
  5 29  1  0  0  0  0
M  END
> <Molecule Name>
DNDI1435823

> <CDD Number>
CDD-1535482

> <IC50_uM>
0.56 (n=1)

$$$$

SketchEl molfile

 35 38  0  0  0  0  0  0  0  0999 V2000
   10.7231   -5.7241    0.0000 S   0  0  0  0  0  0  0  0  0  0  0  0
   11.4274   -6.1529    0.0000 C   0  0  0  0  0  0  0  0  0  0  0  0
   10.3060   -5.0046    0.0000 O   0  0  0  0  0  0  0  0  0  0  0  0
   11.1349   -5.0000    0.0000 O   0  0  0  0  0  0  0  0  0  0  0  0
    7.8531   -7.3466    0.0000 N   0  0  0  0  0  0  0  0  0  0  0  0
    8.5697   -6.9395    0.0000 C   0  0  0  0  0  0  0  0  0  0  0  0
    9.2775   -7.3589    0.0000 C   0  0  0  0  0  0  0  0  0  0  0  0
    9.9919   -6.9553    0.0000 C   0  0  0  0  0  0  0  0  0  0  0  0
   10.0019   -6.1308    0.0000 N   0  0  0  0  0  0  0  0  0  0  0  0
    9.2911   -5.7116    0.0000 C   0  0  0  0  0  0  0  0  0  0  0  0
    8.5705   -6.1169    0.0000 C   0  0  0  0  0  0  0  0  0  0  0  0
    7.8591   -8.1777    0.0000 C   0  0  0  0  0  0  0  0  0  0  0  0
    8.5761   -8.5822    0.0000 C   0  0  0  0  0  0  0  0  0  0  0  0
    9.2873   -9.8175    0.0000 N   0  0  0  0  0  0  0  0  0  0  0  0
    7.1409   -8.5882    0.0000 C   0  0  0  0  0  0  0  0  0  0  0  0
    6.4292   -8.1844    0.0000 C   0  0  0  0  0  0  0  0  0  0  0  0
    7.1441   -9.4185    0.0000 C   0  0  0  0  0  0  0  0  0  0  0  0
    5.7156   -9.4191    0.0000 C   0  0  0  0  0  0  0  0  0  0  0  0
    8.5759   -9.4084    0.0000 C   0  0  0  0  0  0  0  0  0  0  0  0
    5.7169   -8.5922    0.0000 C   0  0  0  0  0  0  0  0  0  0  0  0
    6.4312   -9.8316    0.0000 C   0  0  0  0  0  0  0  0  0  0  0  0
   10.0020   -9.4023    0.0000 C   0  0  0  0  0  0  0  0  0  0  0  0
    9.2788   -8.1684    0.0000 N   0  0  0  0  0  0  0  0  0  0  0  0
    9.9956   -8.5733    0.0000 C   0  0  0  0  0  0  0  0  0  0  0  0
    5.0000   -9.8318    0.0000 F   0  0  0  0  0  0  0  0  0  0  0  0
    7.8587   -9.8286    0.0000 F   0  0  0  0  0  0  0  0  0  0  0  0
   11.4059   -6.9773    0.0000 C   0  0  0  0  0  0  0  0  0  0  0  0
   12.1094   -7.4060    0.0000 C   0  0  0  0  0  0  0  0  0  0  0  0
   12.8338   -7.0104    0.0000 C   0  0  0  0  0  0  0  0  0  0  0  0
   12.8504   -6.1818    0.0000 C   0  0  0  0  0  0  0  0  0  0  0  0
   12.1463   -5.7569    0.0000 C   0  0  0  0  0  0  0  0  0  0  0  0
   13.5394   -7.4387    0.0000 C   0  0  0  0  0  0  0  0  0  0  0  0
   13.5213   -8.2639    0.0000 F   0  0  0  0  0  0  0  0  0  0  0  0
   14.2631   -7.0418    0.0000 F   0  0  0  0  0  0  0  0  0  0  0  0
   12.9431   -8.0094    0.0000 F   0  0  0  0  0  0  0  0  0  0  0  0
 29 32  1  0  0  0  0
 32 33  1  0  0  0  0
 32 34  1  0  0  0  0
 32 35  1  0  0  0  0
 18 21  1  0  0  0  0
 13 19  2  0  0  0  0
 15 16  2  0  0  0  0
 19 14  1  0  0  0  0
 16 20  1  0  0  0  0
 14 22  2  0  0  0  0
 20 18  2  0  0  0  0
 22 24  1  0  0  0  0
  1  3  2  0  0  0  0
 18 25  1  0  0  0  0
  1  4  2  0  0  0  0
 17 26  1  0  0  0  0
 12  5  1  0  0  0  0
  9  1  1  0  0  0  0
  9 10  1  0  0  0  0
 10 11  1  0  0  0  0
  5  6  1  0  0  0  0
  2 27  2  0  0  0  0
  6  7  1  0  0  0  0
 27 28  1  0  0  0  0
  6 11  1  0  0  0  0
 28 29  2  0  0  0  0
  7  8  1  0  0  0  0
 29 30  1  0  0  0  0
  8  9  1  0  0  0  0
 30 31  2  0  0  0  0
 31  2  1  0  0  0  0
  1  2  1  0  0  0  0
 15 12  1  0  0  0  0
 24 23  2  0  0  0  0
 23 13  1  0  0  0  0
 21 17  2  0  0  0  0
 12 13  1  0  0  0  0
 17 15  1  0  0  0  0
M  END
> <Molecule Name>
DNDI1435824

> <CDD Number>
CDD-1535483

> <IC50_uM>
0.36 (n=1)

$$$$

SketchEl molfile

 28 30  0  0  0  0  0  0  0  0999 V2000
   10.7236   -5.7242    0.0000 S   0  0  0  0  0  0  0  0  0  0  0  0
   11.4279   -6.1530    0.0000 C   0  0  0  0  0  0  0  0  0  0  0  0
   10.3064   -5.0046    0.0000 O   0  0  0  0  0  0  0  0  0  0  0  0
   11.1354   -5.0000    0.0000 O   0  0  0  0  0  0  0  0  0  0  0  0
    7.8534   -7.3468    0.0000 N   0  0  0  0  0  0  0  0  0  0  0  0
    8.5700   -6.9396    0.0000 C   0  0  0  0  0  0  0  0  0  0  0  0
    9.2779   -7.3592    0.0000 C   0  0  0  0  0  0  0  0  0  0  0  0
    9.9923   -6.9554    0.0000 C   0  0  0  0  0  0  0  0  0  0  0  0
   10.0022   -6.1309    0.0000 N   0  0  0  0  0  0  0  0  0  0  0  0
    9.2915   -5.7117    0.0000 C   0  0  0  0  0  0  0  0  0  0  0  0
    8.5708   -6.1170    0.0000 C   0  0  0  0  0  0  0  0  0  0  0  0
    7.8593   -8.1780    0.0000 C   0  0  0  0  0  0  0  0  0  0  0  0
    8.5764   -8.5825    0.0000 C   0  0  0  0  0  0  0  0  0  0  0  0
    9.2877   -9.8179    0.0000 N   0  0  0  0  0  0  0  0  0  0  0  0
    7.1411   -8.5885    0.0000 C   0  0  0  0  0  0  0  0  0  0  0  0
    6.4293   -8.1847    0.0000 C   0  0  0  0  0  0  0  0  0  0  0  0
    7.1443   -9.4189    0.0000 C   0  0  0  0  0  0  0  0  0  0  0  0
    5.7156   -9.4194    0.0000 C   0  0  0  0  0  0  0  0  0  0  0  0
    8.5761   -9.4088    0.0000 C   0  0  0  0  0  0  0  0  0  0  0  0
    5.7169   -8.5925    0.0000 C   0  0  0  0  0  0  0  0  0  0  0  0
    6.4314   -9.8320    0.0000 C   0  0  0  0  0  0  0  0  0  0  0  0
   10.0024   -9.4027    0.0000 C   0  0  0  0  0  0  0  0  0  0  0  0
    9.2792   -8.1687    0.0000 N   0  0  0  0  0  0  0  0  0  0  0  0
    9.9959   -8.5736    0.0000 C   0  0  0  0  0  0  0  0  0  0  0  0
    5.0000   -9.8322    0.0000 F   0  0  0  0  0  0  0  0  0  0  0  0
    7.8589   -9.8290    0.0000 F   0  0  0  0  0  0  0  0  0  0  0  0
   11.4064   -6.9775    0.0000 C   0  0  0  0  0  0  0  0  0  0  0  0
   12.1469   -5.7570    0.0000 C   0  0  0  0  0  0  0  0  0  0  0  0
 18 21  1  0  0  0  0
 13 19  2  0  0  0  0
 15 16  2  0  0  0  0
 19 14  1  0  0  0  0
 16 20  1  0  0  0  0
 14 22  2  0  0  0  0
 20 18  2  0  0  0  0
 22 24  1  0  0  0  0
  1  3  2  0  0  0  0
 18 25  1  0  0  0  0
  1  4  2  0  0  0  0
 17 26  1  0  0  0  0
 12  5  1  0  0  0  0
  9  1  1  0  0  0  0
  9 10  1  0  0  0  0
 10 11  1  0  0  0  0
  5  6  1  0  0  0  0
  2 27  1  0  0  0  0
  6  7  1  0  0  0  0
  6 11  1  0  0  0  0
  7  8  1  0  0  0  0
  8  9  1  0  0  0  0
 28  2  1  0  0  0  0
  1  2  1  0  0  0  0
 15 12  1  0  0  0  0
 24 23  2  0  0  0  0
 23 13  1  0  0  0  0
 21 17  2  0  0  0  0
 12 13  1  0  0  0  0
 17 15  1  0  0  0  0
M  END
> <Molecule Name>
DNDI1435825

> <CDD Number>
CDD-1535484

> <IC50_uM>
0.34 (n=1)

$$$$

SketchEl molfile

 32 35  0  0  0  0  0  0  0  0999 V2000
   10.7234   -5.7241    0.0000 S   0  0  0  0  0  0  0  0  0  0  0  0
   11.4277   -6.1529    0.0000 C   0  0  0  0  0  0  0  0  0  0  0  0
   10.3063   -5.0046    0.0000 O   0  0  0  0  0  0  0  0  0  0  0  0
   11.1352   -5.0000    0.0000 O   0  0  0  0  0  0  0  0  0  0  0  0
    7.8533   -7.3467    0.0000 N   0  0  0  0  0  0  0  0  0  0  0  0
    8.5699   -6.9395    0.0000 C   0  0  0  0  0  0  0  0  0  0  0  0
    9.2777   -7.3590    0.0000 C   0  0  0  0  0  0  0  0  0  0  0  0
    9.9921   -6.9554    0.0000 C   0  0  0  0  0  0  0  0  0  0  0  0
   10.0021   -6.1309    0.0000 N   0  0  0  0  0  0  0  0  0  0  0  0
    9.2913   -5.7117    0.0000 C   0  0  0  0  0  0  0  0  0  0  0  0
    8.5706   -6.1170    0.0000 C   0  0  0  0  0  0  0  0  0  0  0  0
    7.8592   -8.1778    0.0000 C   0  0  0  0  0  0  0  0  0  0  0  0
    8.5763   -8.5823    0.0000 C   0  0  0  0  0  0  0  0  0  0  0  0
    9.2875   -9.8177    0.0000 N   0  0  0  0  0  0  0  0  0  0  0  0
    7.1410   -8.5883    0.0000 C   0  0  0  0  0  0  0  0  0  0  0  0
    6.4293   -8.1845    0.0000 C   0  0  0  0  0  0  0  0  0  0  0  0
    7.1442   -9.4187    0.0000 C   0  0  0  0  0  0  0  0  0  0  0  0
    5.7156   -9.4193    0.0000 C   0  0  0  0  0  0  0  0  0  0  0  0
    8.5760   -9.4086    0.0000 C   0  0  0  0  0  0  0  0  0  0  0  0
    5.7169   -8.5923    0.0000 C   0  0  0  0  0  0  0  0  0  0  0  0
    6.4313   -9.8318    0.0000 C   0  0  0  0  0  0  0  0  0  0  0  0
   10.0022   -9.4025    0.0000 C   0  0  0  0  0  0  0  0  0  0  0  0
    9.2790   -8.1686    0.0000 N   0  0  0  0  0  0  0  0  0  0  0  0
    9.9958   -8.5735    0.0000 C   0  0  0  0  0  0  0  0  0  0  0  0
    5.0000   -9.8320    0.0000 F   0  0  0  0  0  0  0  0  0  0  0  0
    7.8588   -9.8288    0.0000 F   0  0  0  0  0  0  0  0  0  0  0  0
   11.4062   -6.9774    0.0000 C   0  0  0  0  0  0  0  0  0  0  0  0
   12.1096   -7.4061    0.0000 C   0  0  0  0  0  0  0  0  0  0  0  0
   12.8341   -7.0105    0.0000 C   0  0  0  0  0  0  0  0  0  0  0  0
   12.8507   -6.1819    0.0000 C   0  0  0  0  0  0  0  0  0  0  0  0
   12.1466   -5.7569    0.0000 C   0  0  0  0  0  0  0  0  0  0  0  0
   13.5397   -7.4388    0.0000 Cl  0  0  0  0  0  0  0  0  0  0  0  0
 14 22  2  0  0  0  0
 20 18  2  0  0  0  0
 22 24  1  0  0  0  0
  1  3  2  0  0  0  0
 18 25  1  0  0  0  0
  1  4  2  0  0  0  0
 17 26  1  0  0  0  0
 12  5  1  0  0  0  0
  9  1  1  0  0  0  0
  9 10  1  0  0  0  0
 10 11  1  0  0  0  0
  5  6  1  0  0  0  0
  6  7  1  0  0  0  0
  6 11  1  0  0  0  0
  7  8  1  0  0  0  0
  8  9  1  0  0  0  0
  1  2  1  0  0  0  0
 15 12  1  0  0  0  0
 24 23  2  0  0  0  0
 23 13  1  0  0  0  0
 21 17  2  0  0  0  0
 12 13  1  0  0  0  0
 17 15  1  0  0  0  0
  2 27  2  0  0  0  0
 18 21  1  0  0  0  0
 27 28  1  0  0  0  0
 13 19  2  0  0  0  0
 28 29  2  0  0  0  0
 15 16  2  0  0  0  0
 29 30  1  0  0  0  0
 19 14  1  0  0  0  0
 30 31  2  0  0  0  0
 31  2  1  0  0  0  0
 16 20  1  0  0  0  0
 29 32  1  0  0  0  0
M  END
> <Molecule Name>
DNDI1435826

> <CDD Number>
CDD-1535485

> <IC50_uM>
0.53 (n=1)

$$$$

SketchEl molfile

 33 36  0  0  0  0  0  0  0  0999 V2000
    8.6203   -5.7243    0.0000 S   0  0  0  0  0  0  0  0  0  0  0  0
    9.3247   -6.1532    0.0000 C   0  0  0  0  0  0  0  0  0  0  0  0
    8.2031   -5.0047    0.0000 O   0  0  0  0  0  0  0  0  0  0  0  0
    9.0321   -5.0000    0.0000 O   0  0  0  0  0  0  0  0  0  0  0  0
    9.3032   -6.9779    0.0000 C   0  0  0  0  0  0  0  0  0  0  0  0
   10.0068   -7.4067    0.0000 C   0  0  0  0  0  0  0  0  0  0  0  0
   10.7314   -7.0110    0.0000 C   0  0  0  0  0  0  0  0  0  0  0  0
   10.7481   -6.1822    0.0000 C   0  0  0  0  0  0  0  0  0  0  0  0
   10.0438   -5.7571    0.0000 C   0  0  0  0  0  0  0  0  0  0  0  0
    7.9003   -6.1259    0.0000 N   0  0  0  0  0  0  0  0  0  0  0  0
    7.8881   -6.9502    0.0000 C   0  0  0  0  0  0  0  0  0  0  0  0
    7.1676   -7.3479    0.0000 C   0  0  0  0  0  0  0  0  0  0  0  0
    7.1535   -8.1685    0.0000 C   0  0  0  0  0  0  0  0  0  0  0  0
    7.8594   -8.5951    0.0000 N   0  0  0  0  0  0  0  0  0  0  0  0
    8.5811   -8.1947    0.0000 C   0  0  0  0  0  0  0  0  0  0  0  0
    8.5970   -7.3679    0.0000 C   0  0  0  0  0  0  0  0  0  0  0  0
    7.8598   -9.4200    0.0000 C   0  0  0  0  0  0  0  0  0  0  0  0
    8.5771   -9.8246    0.0000 C   0  0  0  0  0  0  0  0  0  0  0  0
    9.2884  -11.0602    0.0000 N   0  0  0  0  0  0  0  0  0  0  0  0
    7.1415   -9.8306    0.0000 C   0  0  0  0  0  0  0  0  0  0  0  0
    6.4296   -9.4267    0.0000 C   0  0  0  0  0  0  0  0  0  0  0  0
    7.1446  -10.6612    0.0000 C   0  0  0  0  0  0  0  0  0  0  0  0
    5.7157  -10.6617    0.0000 C   0  0  0  0  0  0  0  0  0  0  0  0
    8.5768  -10.6511    0.0000 C   0  0  0  0  0  0  0  0  0  0  0  0
    5.7170   -9.8346    0.0000 C   0  0  0  0  0  0  0  0  0  0  0  0
    6.4316  -11.0743    0.0000 C   0  0  0  0  0  0  0  0  0  0  0  0
   10.0033  -10.6449    0.0000 C   0  0  0  0  0  0  0  0  0  0  0  0
    9.2799   -9.4108    0.0000 N   0  0  0  0  0  0  0  0  0  0  0  0
    9.9968   -9.8157    0.0000 C   0  0  0  0  0  0  0  0  0  0  0  0
    5.0000  -11.0745    0.0000 C   0  0  0  0  0  0  0  0  0  0  0  0
    4.2846  -10.6611    0.0000 F   0  0  0  0  0  0  0  0  0  0  0  0
    4.9996  -11.9008    0.0000 F   0  0  0  0  0  0  0  0  0  0  0  0
    4.7865  -10.2763    0.0000 F   0  0  0  0  0  0  0  0  0  0  0  0
 23 30  1  0  0  0  0
 30 31  1  0  0  0  0
 30 32  1  0  0  0  0
 30 33  1  0  0  0  0
  9  2  1  0  0  0  0
  1  3  2  0  0  0  0
  1  4  2  0  0  0  0
  1  2  1  0  0  0  0
  2  5  1  0  0  0  0
  5  6  1  0  0  0  0
  6  7  1  0  0  0  0
 14 15  1  0  0  0  0
 15 16  1  0  0  0  0
 10 11  1  0  0  0  0
 19 27  2  0  0  0  0
 25 23  2  0  0  0  0
 27 29  1  0  0  0  0
 20 17  1  0  0  0  0
 29 28  2  0  0  0  0
 28 18  1  0  0  0  0
 26 22  2  0  0  0  0
 17 18  1  0  0  0  0
 22 20  1  0  0  0  0
 23 26  1  0  0  0  0
 18 24  2  0  0  0  0
 20 21  2  0  0  0  0
 24 19  1  0  0  0  0
 21 25  1  0  0  0  0
 17 14  1  0  0  0  0
 11 12  1  0  0  0  0
 11 16  1  0  0  0  0
 12 13  1  0  0  0  0
 13 14  1  0  0  0  0
 10  1  1  0  0  0  0
  7  8  1  0  0  0  0
  8  9  1  0  0  0  0
M  END
> <Molecule Name>
DNDI1435827

> <CDD Number>
CDD-1535486

> <IC50_uM>
0.28 (n=1)

$$$$

SketchEl molfile

 33 36  0  0  0  0  0  0  0  0999 V2000
    8.6223   -5.8251    0.0000 C   0  0  0  0  0  0  0  0  0  0  0  0
    9.3272   -6.2542    0.0000 C   0  0  0  0  0  0  0  0  0  0  0  0
    7.9020   -6.2269    0.0000 N   0  0  0  0  0  0  0  0  0  0  0  0
    7.8898   -7.0517    0.0000 C   0  0  0  0  0  0  0  0  0  0  0  0
    7.1688   -7.4496    0.0000 C   0  0  0  0  0  0  0  0  0  0  0  0
    7.1547   -8.2707    0.0000 C   0  0  0  0  0  0  0  0  0  0  0  0
    7.8610   -8.6975    0.0000 N   0  0  0  0  0  0  0  0  0  0  0  0
    8.5832   -8.2969    0.0000 C   0  0  0  0  0  0  0  0  0  0  0  0
    8.5991   -7.4696    0.0000 C   0  0  0  0  0  0  0  0  0  0  0  0
    7.8615   -9.5229    0.0000 C   0  0  0  0  0  0  0  0  0  0  0  0
    8.5791   -9.9277    0.0000 C   0  0  0  0  0  0  0  0  0  0  0  0
    9.2909  -11.1640    0.0000 N   0  0  0  0  0  0  0  0  0  0  0  0
    7.1427   -9.9337    0.0000 C   0  0  0  0  0  0  0  0  0  0  0  0
    6.4304   -9.5296    0.0000 C   0  0  0  0  0  0  0  0  0  0  0  0
    7.1459  -10.7648    0.0000 C   0  0  0  0  0  0  0  0  0  0  0  0
    5.7162  -10.7653    0.0000 C   0  0  0  0  0  0  0  0  0  0  0  0
    8.5788  -10.7546    0.0000 C   0  0  0  0  0  0  0  0  0  0  0  0
    5.7174   -9.9377    0.0000 C   0  0  0  0  0  0  0  0  0  0  0  0
    6.4324  -11.1782    0.0000 C   0  0  0  0  0  0  0  0  0  0  0  0
   10.0061  -10.7485    0.0000 C   0  0  0  0  0  0  0  0  0  0  0  0
    9.2824   -9.5136    0.0000 N   0  0  0  0  0  0  0  0  0  0  0  0
    9.9997   -9.9188    0.0000 C   0  0  0  0  0  0  0  0  0  0  0  0
    8.6380   -5.0000    0.0000 O   0  0  0  0  0  0  0  0  0  0  0  0
    9.3029   -7.0794    0.0000 C   0  0  0  0  0  0  0  0  0  0  0  0
   10.0069   -7.5084    0.0000 C   0  0  0  0  0  0  0  0  0  0  0  0
   10.7319   -7.1125    0.0000 C   0  0  0  0  0  0  0  0  0  0  0  0
   10.7486   -6.2832    0.0000 C   0  0  0  0  0  0  0  0  0  0  0  0
   10.0439   -5.8579    0.0000 C   0  0  0  0  0  0  0  0  0  0  0  0
   11.4381   -7.5412    0.0000 Cl  0  0  0  0  0  0  0  0  0  0  0  0
    5.0000  -11.1784    0.0000 C   0  0  0  0  0  0  0  0  0  0  0  0
    4.2842  -10.7647    0.0000 F   0  0  0  0  0  0  0  0  0  0  0  0
    4.9996  -12.0051    0.0000 F   0  0  0  0  0  0  0  0  0  0  0  0
    4.7864  -10.3797    0.0000 F   0  0  0  0  0  0  0  0  0  0  0  0
 16 30  1  0  0  0  0
 30 31  1  0  0  0  0
 30 32  1  0  0  0  0
 30 33  1  0  0  0  0
 15 13  1  0  0  0  0
 16 19  1  0  0  0  0
 11 17  2  0  0  0  0
 13 14  2  0  0  0  0
 17 12  1  0  0  0  0
 14 18  1  0  0  0  0
 10  7  1  0  0  0  0
  4  5  1  0  0  0  0
  4  9  1  0  0  0  0
  5  6  1  0  0  0  0
  6  7  1  0  0  0  0
  3  1  1  0  0  0  0
  1 23  2  0  0  0  0
  1  2  1  0  0  0  0
  2 24  2  0  0  0  0
  7  8  1  0  0  0  0
 24 25  1  0  0  0  0
  8  9  1  0  0  0  0
 25 26  2  0  0  0  0
  3  4  1  0  0  0  0
 26 27  1  0  0  0  0
 12 20  2  0  0  0  0
 27 28  2  0  0  0  0
 28  2  1  0  0  0  0
 18 16  2  0  0  0  0
 26 29  1  0  0  0  0
 20 22  1  0  0  0  0
 13 10  1  0  0  0  0
 22 21  2  0  0  0  0
 21 11  1  0  0  0  0
 19 15  2  0  0  0  0
 10 11  1  0  0  0  0
M  END
> <Molecule Name>
DNDI1435828

> <CDD Number>
CDD-1535487

> <IC50_uM>
0.078 (n=1)

$$$$

SketchEl molfile

 29 31  0  0  0  0  0  0  0  0999 V2000
    8.6229   -5.8252    0.0000 C   0  0  0  0  0  0  0  0  0  0  0  0
    9.3279   -6.2544    0.0000 C   0  0  0  0  0  0  0  0  0  0  0  0
    7.9025   -6.2271    0.0000 N   0  0  0  0  0  0  0  0  0  0  0  0
    7.8903   -7.0520    0.0000 C   0  0  0  0  0  0  0  0  0  0  0  0
    7.1692   -7.4499    0.0000 C   0  0  0  0  0  0  0  0  0  0  0  0
    7.1551   -8.2712    0.0000 C   0  0  0  0  0  0  0  0  0  0  0  0
    7.8615   -8.6980    0.0000 N   0  0  0  0  0  0  0  0  0  0  0  0
    8.5837   -8.2974    0.0000 C   0  0  0  0  0  0  0  0  0  0  0  0
    8.5996   -7.4699    0.0000 C   0  0  0  0  0  0  0  0  0  0  0  0
    7.8620   -9.5236    0.0000 C   0  0  0  0  0  0  0  0  0  0  0  0
    8.5797   -9.9285    0.0000 C   0  0  0  0  0  0  0  0  0  0  0  0
    9.2916  -11.1650    0.0000 N   0  0  0  0  0  0  0  0  0  0  0  0
    7.1431   -9.9344    0.0000 C   0  0  0  0  0  0  0  0  0  0  0  0
    6.4307   -9.5303    0.0000 C   0  0  0  0  0  0  0  0  0  0  0  0
    7.1462  -10.7657    0.0000 C   0  0  0  0  0  0  0  0  0  0  0  0
    5.7163  -10.7662    0.0000 C   0  0  0  0  0  0  0  0  0  0  0  0
    8.5794  -10.7555    0.0000 C   0  0  0  0  0  0  0  0  0  0  0  0
    5.7176   -9.9385    0.0000 C   0  0  0  0  0  0  0  0  0  0  0  0
    6.4327  -11.1791    0.0000 C   0  0  0  0  0  0  0  0  0  0  0  0
   10.0069  -10.7494    0.0000 C   0  0  0  0  0  0  0  0  0  0  0  0
    9.2831   -9.5143    0.0000 N   0  0  0  0  0  0  0  0  0  0  0  0
   10.0005   -9.9196    0.0000 C   0  0  0  0  0  0  0  0  0  0  0  0
    8.6386   -5.0000    0.0000 O   0  0  0  0  0  0  0  0  0  0  0  0
    9.3036   -7.0797    0.0000 C   0  0  0  0  0  0  0  0  0  0  0  0
   10.0447   -5.8580    0.0000 C   0  0  0  0  0  0  0  0  0  0  0  0
    5.0000  -11.1793    0.0000 C   0  0  0  0  0  0  0  0  0  0  0  0
    4.2841  -10.7656    0.0000 F   0  0  0  0  0  0  0  0  0  0  0  0
    4.9996  -12.0062    0.0000 F   0  0  0  0  0  0  0  0  0  0  0  0
    4.7863  -10.3805    0.0000 F   0  0  0  0  0  0  0  0  0  0  0  0
 16 26  1  0  0  0  0
 26 27  1  0  0  0  0
 26 28  1  0  0  0  0
 26 29  1  0  0  0  0
 10  7  1  0  0  0  0
  4  5  1  0  0  0  0
  4  9  1  0  0  0  0
  5  6  1  0  0  0  0
  6  7  1  0  0  0  0
  3  1  1  0  0  0  0
  1 23  2  0  0  0  0
  1  2  1  0  0  0  0
  2 24  1  0  0  0  0
  7  8  1  0  0  0  0
  8  9  1  0  0  0  0
  3  4  1  0  0  0  0
 12 20  2  0  0  0  0
 25  2  1  0  0  0  0
 18 16  2  0  0  0  0
 20 22  1  0  0  0  0
 13 10  1  0  0  0  0
 22 21  2  0  0  0  0
 21 11  1  0  0  0  0
 19 15  2  0  0  0  0
 10 11  1  0  0  0  0
 15 13  1  0  0  0  0
 16 19  1  0  0  0  0
 11 17  2  0  0  0  0
 13 14  2  0  0  0  0
 17 12  1  0  0  0  0
 14 18  1  0  0  0  0
M  END
> <Molecule Name>
DNDI1435829

> <CDD Number>
CDD-1535488

> <IC50_uM>
0.56 (n=1)

$$$$

SketchEl molfile

 36 39  0  0  0  0  0  0  0  0999 V2000
    8.6220   -5.8250    0.0000 C   0  0  0  0  0  0  0  0  0  0  0  0
    9.3268   -6.2541    0.0000 C   0  0  0  0  0  0  0  0  0  0  0  0
    7.9017   -6.2268    0.0000 N   0  0  0  0  0  0  0  0  0  0  0  0
    7.8895   -7.0515    0.0000 C   0  0  0  0  0  0  0  0  0  0  0  0
    7.1686   -7.4493    0.0000 C   0  0  0  0  0  0  0  0  0  0  0  0
    7.1545   -8.2704    0.0000 C   0  0  0  0  0  0  0  0  0  0  0  0
    7.8607   -8.6971    0.0000 N   0  0  0  0  0  0  0  0  0  0  0  0
    8.5828   -8.2966    0.0000 C   0  0  0  0  0  0  0  0  0  0  0  0
    8.5987   -7.4693    0.0000 C   0  0  0  0  0  0  0  0  0  0  0  0
    7.8612   -9.5224    0.0000 C   0  0  0  0  0  0  0  0  0  0  0  0
    8.5788   -9.9272    0.0000 C   0  0  0  0  0  0  0  0  0  0  0  0
    9.2904  -11.1634    0.0000 N   0  0  0  0  0  0  0  0  0  0  0  0
    7.1425   -9.9332    0.0000 C   0  0  0  0  0  0  0  0  0  0  0  0
    6.4303   -9.5292    0.0000 C   0  0  0  0  0  0  0  0  0  0  0  0
    7.1457  -10.7642    0.0000 C   0  0  0  0  0  0  0  0  0  0  0  0
    5.7161  -10.7647    0.0000 C   0  0  0  0  0  0  0  0  0  0  0  0
    8.5785  -10.7541    0.0000 C   0  0  0  0  0  0  0  0  0  0  0  0
    5.7174   -9.9372    0.0000 C   0  0  0  0  0  0  0  0  0  0  0  0
    6.4323  -11.1775    0.0000 C   0  0  0  0  0  0  0  0  0  0  0  0
   10.0056  -10.7479    0.0000 C   0  0  0  0  0  0  0  0  0  0  0  0
    9.2820   -9.5132    0.0000 N   0  0  0  0  0  0  0  0  0  0  0  0
    9.9992   -9.9184    0.0000 C   0  0  0  0  0  0  0  0  0  0  0  0
    8.6377   -5.0000    0.0000 O   0  0  0  0  0  0  0  0  0  0  0  0
    9.3025   -7.0792    0.0000 C   0  0  0  0  0  0  0  0  0  0  0  0
   10.0064   -7.5082    0.0000 C   0  0  0  0  0  0  0  0  0  0  0  0
   10.7314   -7.1123    0.0000 C   0  0  0  0  0  0  0  0  0  0  0  0
   10.7480   -6.2831    0.0000 C   0  0  0  0  0  0  0  0  0  0  0  0
   10.0434   -5.8579    0.0000 C   0  0  0  0  0  0  0  0  0  0  0  0
    5.0000  -11.1777    0.0000 C   0  0  0  0  0  0  0  0  0  0  0  0
    4.2843  -10.7641    0.0000 F   0  0  0  0  0  0  0  0  0  0  0  0
    4.9996  -12.0044    0.0000 F   0  0  0  0  0  0  0  0  0  0  0  0
    4.7864  -10.3792    0.0000 F   0  0  0  0  0  0  0  0  0  0  0  0
   11.4375   -7.5409    0.0000 C   0  0  0  0  0  0  0  0  0  0  0  0
   11.4194   -8.3667    0.0000 F   0  0  0  0  0  0  0  0  0  0  0  0
   12.1617   -7.1437    0.0000 F   0  0  0  0  0  0  0  0  0  0  0  0
   10.8407   -8.1121    0.0000 F   0  0  0  0  0  0  0  0  0  0  0  0
 16 29  1  0  0  0  0
 29 30  1  0  0  0  0
 29 31  1  0  0  0  0
 29 32  1  0  0  0  0
 26 33  1  0  0  0  0
 33 34  1  0  0  0  0
 33 35  1  0  0  0  0
 33 36  1  0  0  0  0
 10 11  1  0  0  0  0
 15 13  1  0  0  0  0
 16 19  1  0  0  0  0
 11 17  2  0  0  0  0
 13 14  2  0  0  0  0
 17 12  1  0  0  0  0
 14 18  1  0  0  0  0
  2 24  2  0  0  0  0
 10  7  1  0  0  0  0
 24 25  1  0  0  0  0
  4  5  1  0  0  0  0
 25 26  2  0  0  0  0
  4  9  1  0  0  0  0
 26 27  1  0  0  0  0
  5  6  1  0  0  0  0
 27 28  2  0  0  0  0
 28  2  1  0  0  0  0
  6  7  1  0  0  0  0
  3  1  1  0  0  0  0
  1 23  2  0  0  0  0
  1  2  1  0  0  0  0
  7  8  1  0  0  0  0
  8  9  1  0  0  0  0
  3  4  1  0  0  0  0
 12 20  2  0  0  0  0
 18 16  2  0  0  0  0
 20 22  1  0  0  0  0
 13 10  1  0  0  0  0
 22 21  2  0  0  0  0
 21 11  1  0  0  0  0
 19 15  2  0  0  0  0
M  END
> <Molecule Name>
DNDI1435830

> <CDD Number>
CDD-1535489

> <IC50_uM>
0.1 (n=1)

$$$$

SketchEl molfile

 30 32  0  0  0  0  0  0  0  0999 V2000
    8.6221   -5.8250    0.0000 C   0  0  0  0  0  0  0  0  0  0  0  0
    9.3269   -6.2541    0.0000 C   0  0  0  0  0  0  0  0  0  0  0  0
    7.9018   -6.2268    0.0000 N   0  0  0  0  0  0  0  0  0  0  0  0
    7.8896   -7.0515    0.0000 C   0  0  0  0  0  0  0  0  0  0  0  0
    7.1687   -7.4494    0.0000 C   0  0  0  0  0  0  0  0  0  0  0  0
    7.1546   -8.2705    0.0000 C   0  0  0  0  0  0  0  0  0  0  0  0
    7.8608   -8.6972    0.0000 N   0  0  0  0  0  0  0  0  0  0  0  0
    8.5829   -8.2967    0.0000 C   0  0  0  0  0  0  0  0  0  0  0  0
    8.5988   -7.4694    0.0000 C   0  0  0  0  0  0  0  0  0  0  0  0
    7.8613   -9.5225    0.0000 C   0  0  0  0  0  0  0  0  0  0  0  0
    8.5789   -9.9273    0.0000 C   0  0  0  0  0  0  0  0  0  0  0  0
    9.2906  -11.1636    0.0000 N   0  0  0  0  0  0  0  0  0  0  0  0
    7.1425   -9.9333    0.0000 C   0  0  0  0  0  0  0  0  0  0  0  0
    6.4303   -9.5293    0.0000 C   0  0  0  0  0  0  0  0  0  0  0  0
    7.1457  -10.7643    0.0000 C   0  0  0  0  0  0  0  0  0  0  0  0
    5.7161  -10.7649    0.0000 C   0  0  0  0  0  0  0  0  0  0  0  0
    8.5786  -10.7542    0.0000 C   0  0  0  0  0  0  0  0  0  0  0  0
    5.7174   -9.9374    0.0000 C   0  0  0  0  0  0  0  0  0  0  0  0
    6.4323  -11.1777    0.0000 C   0  0  0  0  0  0  0  0  0  0  0  0
   10.0058  -10.7481    0.0000 C   0  0  0  0  0  0  0  0  0  0  0  0
    9.2821   -9.5133    0.0000 N   0  0  0  0  0  0  0  0  0  0  0  0
    9.9993   -9.9185    0.0000 C   0  0  0  0  0  0  0  0  0  0  0  0
    8.6378   -5.0000    0.0000 O   0  0  0  0  0  0  0  0  0  0  0  0
   10.0509   -5.8583    0.0000 C   0  0  0  0  0  0  0  0  0  0  0  0
   10.7557   -6.2874    0.0000 C   0  0  0  0  0  0  0  0  0  0  0  0
   10.0701   -5.0334    0.0000 C   0  0  0  0  0  0  0  0  0  0  0  0
    5.0000  -11.1779    0.0000 C   0  0  0  0  0  0  0  0  0  0  0  0
    4.2842  -10.7643    0.0000 F   0  0  0  0  0  0  0  0  0  0  0  0
    4.9996  -12.0046    0.0000 F   0  0  0  0  0  0  0  0  0  0  0  0
    4.7864  -10.3793    0.0000 F   0  0  0  0  0  0  0  0  0  0  0  0
 16 27  1  0  0  0  0
 27 28  1  0  0  0  0
 27 29  1  0  0  0  0
 27 30  1  0  0  0  0
  4  9  1  0  0  0  0
  5  6  1  0  0  0  0
  6  7  1  0  0  0  0
  3  1  1  0  0  0  0
  1 23  2  0  0  0  0
  1  2  1  0  0  0  0
  7  8  1  0  0  0  0
  8  9  1  0  0  0  0
  3  4  1  0  0  0  0
 12 20  2  0  0  0  0
 18 16  2  0  0  0  0
 20 22  1  0  0  0  0
 13 10  1  0  0  0  0
 22 21  2  0  0  0  0
 21 11  1  0  0  0  0
 19 15  2  0  0  0  0
  2 24  1  0  0  0  0
 10 11  1  0  0  0  0
 24 25  1  0  0  0  0
 15 13  1  0  0  0  0
 24 26  1  0  0  0  0
 16 19  1  0  0  0  0
 11 17  2  0  0  0  0
 13 14  2  0  0  0  0
 17 12  1  0  0  0  0
 14 18  1  0  0  0  0
 10  7  1  0  0  0  0
  4  5  1  0  0  0  0
M  END
> <Molecule Name>
DNDI1435831

> <CDD Number>
CDD-1535490

> <IC50_uM>
0.28 (n=1)

$$$$

SketchEl molfile

 33 36  0  0  0  0  0  0  0  0999 V2000
    8.6223   -6.1871    0.0000 C   0  0  0  0  0  0  0  0  0  0  0  0
    9.3271   -6.6162    0.0000 C   0  0  0  0  0  0  0  0  0  0  0  0
    7.9019   -6.5889    0.0000 N   0  0  0  0  0  0  0  0  0  0  0  0
    7.8897   -7.4137    0.0000 C   0  0  0  0  0  0  0  0  0  0  0  0
    7.1688   -7.8116    0.0000 C   0  0  0  0  0  0  0  0  0  0  0  0
    7.1547   -8.6327    0.0000 C   0  0  0  0  0  0  0  0  0  0  0  0
    7.8609   -9.0594    0.0000 N   0  0  0  0  0  0  0  0  0  0  0  0
    8.5831   -8.6589    0.0000 C   0  0  0  0  0  0  0  0  0  0  0  0
    8.5990   -7.8316    0.0000 C   0  0  0  0  0  0  0  0  0  0  0  0
    7.8614   -9.8848    0.0000 C   0  0  0  0  0  0  0  0  0  0  0  0
    8.5790  -10.2896    0.0000 C   0  0  0  0  0  0  0  0  0  0  0  0
    9.2908  -11.5259    0.0000 N   0  0  0  0  0  0  0  0  0  0  0  0
    7.1427  -10.2956    0.0000 C   0  0  0  0  0  0  0  0  0  0  0  0
    6.4304   -9.8916    0.0000 C   0  0  0  0  0  0  0  0  0  0  0  0
    7.1458  -11.1267    0.0000 C   0  0  0  0  0  0  0  0  0  0  0  0
    5.7161  -11.1272    0.0000 C   0  0  0  0  0  0  0  0  0  0  0  0
    8.5788  -11.1166    0.0000 C   0  0  0  0  0  0  0  0  0  0  0  0
    5.7174  -10.2997    0.0000 C   0  0  0  0  0  0  0  0  0  0  0  0
    6.4324  -11.5401    0.0000 C   0  0  0  0  0  0  0  0  0  0  0  0
   10.0060  -11.1104    0.0000 C   0  0  0  0  0  0  0  0  0  0  0  0
    9.2823   -9.8756    0.0000 N   0  0  0  0  0  0  0  0  0  0  0  0
    9.9996  -10.2808    0.0000 C   0  0  0  0  0  0  0  0  0  0  0  0
    8.6380   -5.3621    0.0000 O   0  0  0  0  0  0  0  0  0  0  0  0
   10.0511   -6.2204    0.0000 C   0  0  0  0  0  0  0  0  0  0  0  0
   10.7532   -6.6500    0.0000 C   0  0  0  0  0  0  0  0  0  0  0  0
   11.4768   -6.2549    0.0000 C   0  0  0  0  0  0  0  0  0  0  0  0
   11.4964   -5.4290    0.0000 C   0  0  0  0  0  0  0  0  0  0  0  0
   10.7866   -5.0000    0.0000 C   0  0  0  0  0  0  0  0  0  0  0  0
   10.0659   -5.3976    0.0000 C   0  0  0  0  0  0  0  0  0  0  0  0
    5.0000  -11.5403    0.0000 C   0  0  0  0  0  0  0  0  0  0  0  0
    4.2842  -11.1266    0.0000 F   0  0  0  0  0  0  0  0  0  0  0  0
    4.9996  -12.3670    0.0000 F   0  0  0  0  0  0  0  0  0  0  0  0
    4.7864  -10.7416    0.0000 F   0  0  0  0  0  0  0  0  0  0  0  0
 16 30  1  0  0  0  0
 30 31  1  0  0  0  0
 30 32  1  0  0  0  0
 30 33  1  0  0  0  0
 20 22  1  0  0  0  0
 13 10  1  0  0  0  0
 22 21  2  0  0  0  0
 21 11  1  0  0  0  0
 19 15  2  0  0  0  0
  2 24  1  0  0  0  0
 10 11  1  0  0  0  0
 15 13  1  0  0  0  0
 16 19  1  0  0  0  0
 11 17  2  0  0  0  0
 13 14  2  0  0  0  0
 17 12  1  0  0  0  0
 14 18  1  0  0  0  0
 10  7  1  0  0  0  0
  4  5  1  0  0  0  0
 24 25  2  0  0  0  0
  4  9  1  0  0  0  0
 25 26  1  0  0  0  0
  5  6  1  0  0  0  0
 26 27  2  0  0  0  0
  6  7  1  0  0  0  0
 27 28  1  0  0  0  0
  3  1  1  0  0  0  0
 28 29  2  0  0  0  0
 29 24  1  0  0  0  0
  1 23  2  0  0  0  0
  1  2  1  0  0  0  0
  7  8  1  0  0  0  0
  8  9  1  0  0  0  0
  3  4  1  0  0  0  0
 12 20  2  0  0  0  0
 18 16  2  0  0  0  0
M  END
> <Molecule Name>
DNDI1435832

> <CDD Number>
CDD-1535491

> <IC50_uM>
0.19 (n=1)

$$$$

SketchEl molfile

 28 30  0  0  0  0  0  0  0  0999 V2000
   10.7252   -5.8282    0.0000 C   0  0  0  0  0  0  0  0  0  0  0  0
   11.4297   -6.2572    0.0000 C   0  0  0  0  0  0  0  0  0  0  0  0
    7.8542   -7.4514    0.0000 N   0  0  0  0  0  0  0  0  0  0  0  0
    8.5710   -7.0440    0.0000 C   0  0  0  0  0  0  0  0  0  0  0  0
    9.2791   -7.4637    0.0000 C   0  0  0  0  0  0  0  0  0  0  0  0
    9.9937   -7.0599    0.0000 C   0  0  0  0  0  0  0  0  0  0  0  0
   10.0037   -6.2351    0.0000 N   0  0  0  0  0  0  0  0  0  0  0  0
    9.2927   -5.8158    0.0000 C   0  0  0  0  0  0  0  0  0  0  0  0
    8.5718   -6.2212    0.0000 C   0  0  0  0  0  0  0  0  0  0  0  0
    7.8602   -8.2827    0.0000 C   0  0  0  0  0  0  0  0  0  0  0  0
    8.5774   -8.6874    0.0000 C   0  0  0  0  0  0  0  0  0  0  0  0
    9.2889   -9.9231    0.0000 N   0  0  0  0  0  0  0  0  0  0  0  0
    7.1417   -8.6933    0.0000 C   0  0  0  0  0  0  0  0  0  0  0  0
    6.4298   -8.2895    0.0000 C   0  0  0  0  0  0  0  0  0  0  0  0
    7.1449   -9.5240    0.0000 C   0  0  0  0  0  0  0  0  0  0  0  0
    5.7158   -9.5246    0.0000 C   0  0  0  0  0  0  0  0  0  0  0  0
    8.5772   -9.5139    0.0000 C   0  0  0  0  0  0  0  0  0  0  0  0
    5.7171   -8.6974    0.0000 C   0  0  0  0  0  0  0  0  0  0  0  0
    6.4318   -9.9372    0.0000 C   0  0  0  0  0  0  0  0  0  0  0  0
   10.0038   -9.5078    0.0000 C   0  0  0  0  0  0  0  0  0  0  0  0
    9.2804   -8.2735    0.0000 N   0  0  0  0  0  0  0  0  0  0  0  0
    9.9974   -8.6785    0.0000 C   0  0  0  0  0  0  0  0  0  0  0  0
   12.1489   -5.8610    0.0000 C   0  0  0  0  0  0  0  0  0  0  0  0
   10.7391   -5.0000    0.0000 O   0  0  0  0  0  0  0  0  0  0  0  0
    5.0000   -9.9374    0.0000 C   0  0  0  0  0  0  0  0  0  0  0  0
    4.2845   -9.5239    0.0000 F   0  0  0  0  0  0  0  0  0  0  0  0
    4.9996  -10.7638    0.0000 F   0  0  0  0  0  0  0  0  0  0  0  0
    4.7865   -9.1391    0.0000 F   0  0  0  0  0  0  0  0  0  0  0  0
 16 25  1  0  0  0  0
 25 26  1  0  0  0  0
 25 27  1  0  0  0  0
 25 28  1  0  0  0  0
  8  9  1  0  0  0  0
  3  4  1  0  0  0  0
  4  5  1  0  0  0  0
  4  9  1  0  0  0  0
  5  6  1  0  0  0  0
  6  7  1  0  0  0  0
  1  2  1  0  0  0  0
 13 10  1  0  0  0  0
 22 21  2  0  0  0  0
 21 11  1  0  0  0  0
 19 15  2  0  0  0  0
 10 11  1  0  0  0  0
 15 13  1  0  0  0  0
 16 19  1  0  0  0  0
 11 17  2  0  0  0  0
 13 14  2  0  0  0  0
 17 12  1  0  0  0  0
 23  2  1  0  0  0  0
 14 18  1  0  0  0  0
  1 24  2  0  0  0  0
 12 20  2  0  0  0  0
 18 16  2  0  0  0  0
 20 22  1  0  0  0  0
 10  3  1  0  0  0  0
  7  1  1  0  0  0  0
  7  8  1  0  0  0  0
M  END
> <Molecule Name>
DNDI1435833

> <CDD Number>
CDD-1535492

> <IC50_uM>
> 1.0 (n=1)

$$$$

SketchEl molfile

 29 31  0  0  0  0  0  0  0  0999 V2000
   10.7253   -5.8282    0.0000 C   0  0  0  0  0  0  0  0  0  0  0  0
   11.4298   -6.2571    0.0000 N   0  0  0  0  0  0  0  0  0  0  0  0
    7.8542   -7.4513    0.0000 N   0  0  0  0  0  0  0  0  0  0  0  0
    8.5710   -7.0440    0.0000 C   0  0  0  0  0  0  0  0  0  0  0  0
    9.2791   -7.4637    0.0000 C   0  0  0  0  0  0  0  0  0  0  0  0
    9.9938   -7.0598    0.0000 C   0  0  0  0  0  0  0  0  0  0  0  0
   10.0037   -6.2351    0.0000 N   0  0  0  0  0  0  0  0  0  0  0  0
    9.2927   -5.8157    0.0000 C   0  0  0  0  0  0  0  0  0  0  0  0
    8.5718   -6.2212    0.0000 C   0  0  0  0  0  0  0  0  0  0  0  0
    7.8602   -8.2827    0.0000 C   0  0  0  0  0  0  0  0  0  0  0  0
    8.5775   -8.6873    0.0000 C   0  0  0  0  0  0  0  0  0  0  0  0
    9.2889   -9.9231    0.0000 N   0  0  0  0  0  0  0  0  0  0  0  0
    7.1417   -8.6933    0.0000 C   0  0  0  0  0  0  0  0  0  0  0  0
    6.4298   -8.2894    0.0000 C   0  0  0  0  0  0  0  0  0  0  0  0
    7.1449   -9.5240    0.0000 C   0  0  0  0  0  0  0  0  0  0  0  0
    5.7158   -9.5246    0.0000 C   0  0  0  0  0  0  0  0  0  0  0  0
    8.5772   -9.5139    0.0000 C   0  0  0  0  0  0  0  0  0  0  0  0
    5.7171   -8.6974    0.0000 C   0  0  0  0  0  0  0  0  0  0  0  0
    6.4318   -9.9372    0.0000 C   0  0  0  0  0  0  0  0  0  0  0  0
   10.0038   -9.5078    0.0000 C   0  0  0  0  0  0  0  0  0  0  0  0
    9.2804   -8.2735    0.0000 N   0  0  0  0  0  0  0  0  0  0  0  0
    9.9974   -8.6785    0.0000 C   0  0  0  0  0  0  0  0  0  0  0  0
   12.1490   -5.8610    0.0000 C   0  0  0  0  0  0  0  0  0  0  0  0
   10.7391   -5.0000    0.0000 O   0  0  0  0  0  0  0  0  0  0  0  0
   11.4119   -7.0818    0.0000 C   0  0  0  0  0  0  0  0  0  0  0  0
    5.0000   -9.9374    0.0000 C   0  0  0  0  0  0  0  0  0  0  0  0
    4.2845   -9.5239    0.0000 F   0  0  0  0  0  0  0  0  0  0  0  0
    4.9996  -10.7638    0.0000 F   0  0  0  0  0  0  0  0  0  0  0  0
    4.7865   -9.1391    0.0000 F   0  0  0  0  0  0  0  0  0  0  0  0
 16 26  1  0  0  0  0
 26 27  1  0  0  0  0
 26 28  1  0  0  0  0
 26 29  1  0  0  0  0
 16 19  1  0  0  0  0
 11 17  2  0  0  0  0
 13 14  2  0  0  0  0
 17 12  1  0  0  0  0
 23  2  1  0  0  0  0
 14 18  1  0  0  0  0
  1 24  2  0  0  0  0
 12 20  2  0  0  0  0
 18 16  2  0  0  0  0
 20 22  1  0  0  0  0
 10  3  1  0  0  0  0
  7  1  1  0  0  0  0
  7  8  1  0  0  0  0
  2 25  1  0  0  0  0
  8  9  1  0  0  0  0
  3  4  1  0  0  0  0
  4  5  1  0  0  0  0
  4  9  1  0  0  0  0
  5  6  1  0  0  0  0
  6  7  1  0  0  0  0
  1  2  1  0  0  0  0
 13 10  1  0  0  0  0
 22 21  2  0  0  0  0
 21 11  1  0  0  0  0
 19 15  2  0  0  0  0
 10 11  1  0  0  0  0
 15 13  1  0  0  0  0
M  END
> <Molecule Name>
DNDI1435834

> <CDD Number>
CDD-1535493

> <IC50_uM>
0.5 (n=1)

$$$$

SketchEl molfile

 29 32  0  0  0  0  0  0  0  0999 V2000
    7.1382   -9.1356    0.0000 C   0  0  0  0  0  0  0  0  0  0  0  0
    7.8569   -8.7248    0.0000 C   0  0  0  0  0  0  0  0  0  0  0  0
    7.8890   -6.2503    0.0000 N   0  0  0  0  0  0  0  0  0  0  0  0
    7.8673   -7.8999    0.0000 N   0  0  0  0  0  0  0  0  0  0  0  0
    7.1413   -9.9667    0.0000 C   0  0  0  0  0  0  0  0  0  0  0  0
    8.5746   -9.1296    0.0000 C   0  0  0  0  0  0  0  0  0  0  0  0
    6.4259   -8.7315    0.0000 C   0  0  0  0  0  0  0  0  0  0  0  0
    6.4279  -10.3801    0.0000 C   0  0  0  0  0  0  0  0  0  0  0  0
    9.9951   -9.1208    0.0000 C   0  0  0  0  0  0  0  0  0  0  0  0
    9.2863  -10.3660    0.0000 N   0  0  0  0  0  0  0  0  0  0  0  0
    7.1659   -6.6570    0.0000 C   0  0  0  0  0  0  0  0  0  0  0  0
    8.5929   -6.6807    0.0000 C   0  0  0  0  0  0  0  0  0  0  0  0
    7.1514   -7.4847    0.0000 C   0  0  0  0  0  0  0  0  0  0  0  0
    8.5896   -7.5015    0.0000 C   0  0  0  0  0  0  0  0  0  0  0  0
   10.0016   -9.9504    0.0000 C   0  0  0  0  0  0  0  0  0  0  0  0
    5.7116   -9.9672    0.0000 C   0  0  0  0  0  0  0  0  0  0  0  0
    5.0000  -10.3791    0.0000 Cl  0  0  0  0  0  0  0  0  0  0  0  0
    5.7129   -9.1397    0.0000 C   0  0  0  0  0  0  0  0  0  0  0  0
    8.5743   -9.9566    0.0000 C   0  0  0  0  0  0  0  0  0  0  0  0
    9.2778   -8.7156    0.0000 C   0  0  0  0  0  0  0  0  0  0  0  0
    7.9040   -5.4254    0.0000 C   0  0  0  0  0  0  0  0  0  0  0  0
    8.6259   -5.0260    0.0000 N   0  0  0  0  0  0  0  0  0  0  0  0
    7.1971   -5.0000    0.0000 O   0  0  0  0  0  0  0  0  0  0  0  0
    9.3328   -5.4515    0.0000 C   0  0  0  0  0  0  0  0  0  0  0  0
    9.3160   -6.2768    0.0000 C   0  0  0  0  0  0  0  0  0  0  0  0
   10.0221   -6.7021    0.0000 C   0  0  0  0  0  0  0  0  0  0  0  0
   10.7449   -6.3026    0.0000 C   0  0  0  0  0  0  0  0  0  0  0  0
   10.7574   -5.4734    0.0000 C   0  0  0  0  0  0  0  0  0  0  0  0
   10.0507   -5.0518    0.0000 C   0  0  0  0  0  0  0  0  0  0  0  0
 10 15  2  0  0  0  0
 18 16  2  0  0  0  0
 15  9  1  0  0  0  0
  4 14  1  0  0  0  0
  4  2  1  0  0  0  0
  1  2  1  0  0  0  0
 16 17  1  0  0  0  0
  9 20  2  0  0  0  0
  4 13  1  0  0  0  0
 14 12  1  0  0  0  0
 12  3  1  0  0  0  0
  3 11  1  0  0  0  0
 11 13  1  0  0  0  0
 20  6  1  0  0  0  0
  3 21  1  0  0  0  0
  8  5  2  0  0  0  0
 21 22  1  0  0  0  0
  2  6  1  0  0  0  0
 21 23  2  0  0  0  0
  5  1  1  0  0  0  0
 22 24  1  0  0  0  0
 16  8  1  0  0  0  0
 24 25  2  0  0  0  0
  6 19  2  0  0  0  0
 25 26  1  0  0  0  0
  1  7  2  0  0  0  0
 26 27  2  0  0  0  0
 19 10  1  0  0  0  0
 27 28  1  0  0  0  0
  7 18  1  0  0  0  0
 28 29  2  0  0  0  0
 29 24  1  0  0  0  0
M  END
> <Molecule Name>
DNDI1435835

> <CDD Number>
CDD-1535494

> <IC50_uM>
0.009 (n=1)

$$$$

SketchEl molfile

 29 31  0  0  0  0  0  0  0  0999 V2000
   10.7253   -5.8282    0.0000 C   0  0  0  0  0  0  0  0  0  0  0  0
   11.4298   -6.2571    0.0000 C   0  0  0  0  0  0  0  0  0  0  0  0
    7.8542   -7.4513    0.0000 N   0  0  0  0  0  0  0  0  0  0  0  0
    8.5710   -7.0440    0.0000 C   0  0  0  0  0  0  0  0  0  0  0  0
    9.2791   -7.4637    0.0000 C   0  0  0  0  0  0  0  0  0  0  0  0
    9.9938   -7.0598    0.0000 C   0  0  0  0  0  0  0  0  0  0  0  0
   10.0037   -6.2351    0.0000 N   0  0  0  0  0  0  0  0  0  0  0  0
    9.2927   -5.8157    0.0000 C   0  0  0  0  0  0  0  0  0  0  0  0
    8.5718   -6.2212    0.0000 C   0  0  0  0  0  0  0  0  0  0  0  0
    7.8602   -8.2827    0.0000 C   0  0  0  0  0  0  0  0  0  0  0  0
    8.5775   -8.6873    0.0000 C   0  0  0  0  0  0  0  0  0  0  0  0
    9.2889   -9.9231    0.0000 N   0  0  0  0  0  0  0  0  0  0  0  0
    7.1417   -8.6933    0.0000 C   0  0  0  0  0  0  0  0  0  0  0  0
    6.4298   -8.2894    0.0000 C   0  0  0  0  0  0  0  0  0  0  0  0
    7.1449   -9.5240    0.0000 C   0  0  0  0  0  0  0  0  0  0  0  0
    5.7158   -9.5246    0.0000 C   0  0  0  0  0  0  0  0  0  0  0  0
    8.5772   -9.5139    0.0000 C   0  0  0  0  0  0  0  0  0  0  0  0
    5.7171   -8.6974    0.0000 C   0  0  0  0  0  0  0  0  0  0  0  0
    6.4318   -9.9372    0.0000 C   0  0  0  0  0  0  0  0  0  0  0  0
   10.0038   -9.5078    0.0000 C   0  0  0  0  0  0  0  0  0  0  0  0
    9.2804   -8.2735    0.0000 N   0  0  0  0  0  0  0  0  0  0  0  0
    9.9974   -8.6785    0.0000 C   0  0  0  0  0  0  0  0  0  0  0  0
   12.1490   -5.8610    0.0000 C   0  0  0  0  0  0  0  0  0  0  0  0
   10.7391   -5.0000    0.0000 O   0  0  0  0  0  0  0  0  0  0  0  0
   11.4119   -7.0818    0.0000 C   0  0  0  0  0  0  0  0  0  0  0  0
    5.0000   -9.9374    0.0000 C   0  0  0  0  0  0  0  0  0  0  0  0
    4.2845   -9.5239    0.0000 F   0  0  0  0  0  0  0  0  0  0  0  0
    4.9996  -10.7638    0.0000 F   0  0  0  0  0  0  0  0  0  0  0  0
    4.7865   -9.1391    0.0000 F   0  0  0  0  0  0  0  0  0  0  0  0
 16 26  1  0  0  0  0
 26 27  1  0  0  0  0
 26 28  1  0  0  0  0
 26 29  1  0  0  0  0
  1 24  2  0  0  0  0
 12 20  2  0  0  0  0
 18 16  2  0  0  0  0
 20 22  1  0  0  0  0
 10  3  1  0  0  0  0
  7  1  1  0  0  0  0
  7  8  1  0  0  0  0
  2 25  1  0  0  0  0
  8  9  1  0  0  0  0
  3  4  1  0  0  0  0
  4  5  1  0  0  0  0
  4  9  1  0  0  0  0
  5  6  1  0  0  0  0
  6  7  1  0  0  0  0
  1  2  1  0  0  0  0
 13 10  1  0  0  0  0
 22 21  2  0  0  0  0
 21 11  1  0  0  0  0
 19 15  2  0  0  0  0
 10 11  1  0  0  0  0
 15 13  1  0  0  0  0
 16 19  1  0  0  0  0
 11 17  2  0  0  0  0
 13 14  2  0  0  0  0
 17 12  1  0  0  0  0
 23  2  1  0  0  0  0
 14 18  1  0  0  0  0
M  END
> <Molecule Name>
DNDI1435836

> <CDD Number>
CDD-1535495

> <IC50_uM>
0.23 (n=1)

$$$$

SketchEl molfile

 33 36  0  0  0  0  0  0  0  0999 V2000
    7.0738  -11.1743    0.0000 C   0  0  0  0  0  0  0  0  0  0  0  0
    7.8142   -7.5782    0.0000 S   0  0  0  0  0  0  0  0  0  0  0  0
    7.7694  -10.7741    0.0000 C   0  0  0  0  0  0  0  0  0  0  0  0
    7.8006   -8.3772    0.0000 N   0  0  0  0  0  0  0  0  0  0  0  0
    7.7796   -9.9751    0.0000 N   0  0  0  0  0  0  0  0  0  0  0  0
    7.0769  -11.9793    0.0000 C   0  0  0  0  0  0  0  0  0  0  0  0
    8.4685  -11.1684    0.0000 C   0  0  0  0  0  0  0  0  0  0  0  0
    6.3845  -10.7806    0.0000 C   0  0  0  0  0  0  0  0  0  0  0  0
    6.3864  -12.3820    0.0000 C   0  0  0  0  0  0  0  0  0  0  0  0
    6.9541   -7.3885    0.0000 O   0  0  0  0  0  0  0  0  0  0  0  0
    9.8433  -11.1598    0.0000 N   0  0  0  0  0  0  0  0  0  0  0  0
    9.1573  -12.3682    0.0000 N   0  0  0  0  0  0  0  0  0  0  0  0
    7.1008   -8.7688    0.0000 C   0  0  0  0  0  0  0  0  0  0  0  0
    8.4863   -8.7919    0.0000 C   0  0  0  0  0  0  0  0  0  0  0  0
    7.0867   -9.5751    0.0000 C   0  0  0  0  0  0  0  0  0  0  0  0
    8.4831   -9.5915    0.0000 C   0  0  0  0  0  0  0  0  0  0  0  0
    9.8495  -11.9635    0.0000 C   0  0  0  0  0  0  0  0  0  0  0  0
    8.5724   -7.1563    0.0000 C   0  0  0  0  0  0  0  0  0  0  0  0
    7.7691  -12.3790    0.0000 F   0  0  0  0  0  0  0  0  0  0  0  0
    5.6932  -11.9798    0.0000 C   0  0  0  0  0  0  0  0  0  0  0  0
    5.0000  -12.3810    0.0000 Cl  0  0  0  0  0  0  0  0  0  0  0  0
    5.6944  -11.1782    0.0000 C   0  0  0  0  0  0  0  0  0  0  0  0
    8.4682  -11.9694    0.0000 C   0  0  0  0  0  0  0  0  0  0  0  0
    9.1490  -10.7651    0.0000 C   0  0  0  0  0  0  0  0  0  0  0  0
    7.5695   -6.7044    0.0000 O   0  0  0  0  0  0  0  0  0  0  0  0
    9.3111   -7.6056    0.0000 C   0  0  0  0  0  0  0  0  0  0  0  0
   10.0644   -7.1844    0.0000 C   0  0  0  0  0  0  0  0  0  0  0  0
   10.0786   -6.3203    0.0000 C   0  0  0  0  0  0  0  0  0  0  0  0
    9.3334   -5.8792    0.0000 C   0  0  0  0  0  0  0  0  0  0  0  0
    8.5832   -6.2984    0.0000 C   0  0  0  0  0  0  0  0  0  0  0  0
   10.8546   -5.8892    0.0000 C   0  0  0  0  0  0  0  0  0  0  0  0
   11.6177   -6.3429    0.0000 C   0  0  0  0  0  0  0  0  0  0  0  0
   10.8676   -5.0000    0.0000 C   0  0  0  0  0  0  0  0  0  0  0  0
  2 18  1  0  0  0  0
 12 17  2  0  0  0  0
 22 20  2  0  0  0  0
 17 11  1  0  0  0  0
  5 16  1  0  0  0  0
  5  3  1  0  0  0  0
  1  3  1  0  0  0  0
 20 21  1  0  0  0  0
 11 24  2  0  0  0  0
  5 15  1  0  0  0  0
 16 14  1  0  0  0  0
 14  4  1  0  0  0  0
  4 13  1  0  0  0  0
 13 15  1  0  0  0  0
  6 19  1  0  0  0  0
 24  7  1  0  0  0  0
  2 10  2  0  0  0  0
  2 25  2  0  0  0  0
  9  6  2  0  0  0  0
  3  7  1  0  0  0  0
 18 26  2  0  0  0  0
  6  1  1  0  0  0  0
 26 27  1  0  0  0  0
 20  9  1  0  0  0  0
 27 28  2  0  0  0  0
  7 23  2  0  0  0  0
 28 29  1  0  0  0  0
  1  8  2  0  0  0  0
 29 30  2  0  0  0  0
 30 18  1  0  0  0  0
  2  4  1  0  0  0  0
 28 31  1  0  0  0  0
 23 12  1  0  0  0  0
 31 32  1  0  0  0  0
  8 22  1  0  0  0  0
 31 33  1  0  0  0  0
M  END
> <Molecule Name>
DNDI1435837

> <CDD Number>
CDD-1535496

> <IC50_uM>
0.018 (n=1)

$$$$

SketchEl molfile

 26 28  0  0  0  0  0  0  0  0999 V2000
    7.1375   -9.9355    0.0000 C   0  0  0  0  0  0  0  0  0  0  0  0
    7.8545   -9.5230    0.0000 C   0  0  0  0  0  0  0  0  0  0  0  0
    7.8866   -7.0525    0.0000 N   0  0  0  0  0  0  0  0  0  0  0  0
    7.8649   -8.6995    0.0000 N   0  0  0  0  0  0  0  0  0  0  0  0
    7.1406  -10.7652    0.0000 C   0  0  0  0  0  0  0  0  0  0  0  0
    8.5750   -9.9295    0.0000 C   0  0  0  0  0  0  0  0  0  0  0  0
    6.4270   -9.5298    0.0000 C   0  0  0  0  0  0  0  0  0  0  0  0
    6.4290  -11.1803    0.0000 C   0  0  0  0  0  0  0  0  0  0  0  0
    9.9920   -9.9206    0.0000 N   0  0  0  0  0  0  0  0  0  0  0  0
    9.2850  -11.1661    0.0000 N   0  0  0  0  0  0  0  0  0  0  0  0
    7.1653   -7.4562    0.0000 C   0  0  0  0  0  0  0  0  0  0  0  0
    8.5934   -7.4800    0.0000 C   0  0  0  0  0  0  0  0  0  0  0  0
    7.1508   -8.2872    0.0000 C   0  0  0  0  0  0  0  0  0  0  0  0
    8.5901   -8.3041    0.0000 C   0  0  0  0  0  0  0  0  0  0  0  0
    9.9984  -10.7489    0.0000 C   0  0  0  0  0  0  0  0  0  0  0  0
    7.8541  -11.1772    0.0000 F   0  0  0  0  0  0  0  0  0  0  0  0
    5.7145  -10.7658    0.0000 C   0  0  0  0  0  0  0  0  0  0  0  0
    5.0000  -11.1793    0.0000 Cl  0  0  0  0  0  0  0  0  0  0  0  0
    5.7158   -9.9395    0.0000 C   0  0  0  0  0  0  0  0  0  0  0  0
    8.5747  -10.7551    0.0000 C   0  0  0  0  0  0  0  0  0  0  0  0
    9.2764   -9.5137    0.0000 C   0  0  0  0  0  0  0  0  0  0  0  0
    7.9006   -6.2267    0.0000 C   0  0  0  0  0  0  0  0  0  0  0  0
    8.6227   -5.8259    0.0000 N   0  0  0  0  0  0  0  0  0  0  0  0
    7.1924   -5.8017    0.0000 O   0  0  0  0  0  0  0  0  0  0  0  0
    9.3309   -6.2508    0.0000 C   0  0  0  0  0  0  0  0  0  0  0  0
    8.6367   -5.0000    0.0000 C   0  0  0  0  0  0  0  0  0  0  0  0
  4  2  1  0  0  0  0
  1  2  1  0  0  0  0
 17 18  1  0  0  0  0
  9 21  2  0  0  0  0
  4 13  1  0  0  0  0
 14 12  1  0  0  0  0
 12  3  1  0  0  0  0
  3 11  1  0  0  0  0
 11 13  1  0  0  0  0
  5 16  1  0  0  0  0
 21  6  1  0  0  0  0
  8  5  2  0  0  0  0
  2  6  1  0  0  0  0
  5  1  1  0  0  0  0
 17  8  1  0  0  0  0
  6 20  2  0  0  0  0
  1  7  2  0  0  0  0
 20 10  1  0  0  0  0
  7 19  1  0  0  0  0
  3 22  1  0  0  0  0
 10 15  2  0  0  0  0
 22 23  1  0  0  0  0
 19 17  2  0  0  0  0
 22 24  2  0  0  0  0
 15  9  1  0  0  0  0
 23 25  1  0  0  0  0
  4 14  1  0  0  0  0
 23 26  1  0  0  0  0
M  END
> <Molecule Name>
DNDI1435838

> <CDD Number>
CDD-1535497

> <IC50_uM>
0.48 (n=1)

$$$$

SketchEl molfile

 25 27  0  0  0  0  0  0  0  0999 V2000
    7.1375   -9.1339    0.0000 C   0  0  0  0  0  0  0  0  0  0  0  0
    7.8546   -8.7214    0.0000 C   0  0  0  0  0  0  0  0  0  0  0  0
    7.8868   -6.2509    0.0000 N   0  0  0  0  0  0  0  0  0  0  0  0
    7.8651   -7.8979    0.0000 N   0  0  0  0  0  0  0  0  0  0  0  0
    7.1407   -9.9637    0.0000 C   0  0  0  0  0  0  0  0  0  0  0  0
    8.5751   -9.1279    0.0000 C   0  0  0  0  0  0  0  0  0  0  0  0
    6.4270   -8.7282    0.0000 C   0  0  0  0  0  0  0  0  0  0  0  0
    6.4290  -10.3788    0.0000 C   0  0  0  0  0  0  0  0  0  0  0  0
    9.9922   -9.1190    0.0000 N   0  0  0  0  0  0  0  0  0  0  0  0
    9.2851  -10.3646    0.0000 N   0  0  0  0  0  0  0  0  0  0  0  0
    7.1654   -6.6545    0.0000 C   0  0  0  0  0  0  0  0  0  0  0  0
    8.5935   -6.6783    0.0000 C   0  0  0  0  0  0  0  0  0  0  0  0
    7.1508   -7.4856    0.0000 C   0  0  0  0  0  0  0  0  0  0  0  0
    8.5902   -7.5025    0.0000 C   0  0  0  0  0  0  0  0  0  0  0  0
    9.9986   -9.9474    0.0000 C   0  0  0  0  0  0  0  0  0  0  0  0
    7.8542  -10.3757    0.0000 F   0  0  0  0  0  0  0  0  0  0  0  0
    5.7145   -9.9642    0.0000 C   0  0  0  0  0  0  0  0  0  0  0  0
    5.0000  -10.3778    0.0000 Cl  0  0  0  0  0  0  0  0  0  0  0  0
    5.7158   -9.1380    0.0000 C   0  0  0  0  0  0  0  0  0  0  0  0
    8.5749   -9.9536    0.0000 C   0  0  0  0  0  0  0  0  0  0  0  0
    9.2766   -8.7121    0.0000 C   0  0  0  0  0  0  0  0  0  0  0  0
    7.9007   -5.4250    0.0000 C   0  0  0  0  0  0  0  0  0  0  0  0
    8.6229   -5.0241    0.0000 C   0  0  0  0  0  0  0  0  0  0  0  0
    7.1924   -5.0000    0.0000 O   0  0  0  0  0  0  0  0  0  0  0  0
    9.3311   -5.4491    0.0000 C   0  0  0  0  0  0  0  0  0  0  0  0
  4  2  1  0  0  0  0
  1  2  1  0  0  0  0
 17 18  1  0  0  0  0
  9 21  2  0  0  0  0
  4 13  1  0  0  0  0
 14 12  1  0  0  0  0
 12  3  1  0  0  0  0
  3 11  1  0  0  0  0
 11 13  1  0  0  0  0
  5 16  1  0  0  0  0
 21  6  1  0  0  0  0
  8  5  2  0  0  0  0
  2  6  1  0  0  0  0
  5  1  1  0  0  0  0
 17  8  1  0  0  0  0
  6 20  2  0  0  0  0
  1  7  2  0  0  0  0
 20 10  1  0  0  0  0
  7 19  1  0  0  0  0
  3 22  1  0  0  0  0
 10 15  2  0  0  0  0
 22 23  1  0  0  0  0
 19 17  2  0  0  0  0
 22 24  2  0  0  0  0
 15  9  1  0  0  0  0
 23 25  1  0  0  0  0
  4 14  1  0  0  0  0
M  END
> <Molecule Name>
DNDI1435839

> <CDD Number>
CDD-1535498

> <IC50_uM>
0.44 (n=1)

$$$$

SketchEl molfile

 34 37  0  0  0  0  0  0  0  0999 V2000
    7.1057  -10.2547    0.0000 C   0  0  0  0  0  0  0  0  0  0  0  0
    7.8120   -9.8483    0.0000 C   0  0  0  0  0  0  0  0  0  0  0  0
    7.8437   -7.4146    0.0000 N   0  0  0  0  0  0  0  0  0  0  0  0
    7.8223   -9.0371    0.0000 N   0  0  0  0  0  0  0  0  0  0  0  0
    7.1088  -11.0721    0.0000 C   0  0  0  0  0  0  0  0  0  0  0  0
    8.5218  -10.2488    0.0000 C   0  0  0  0  0  0  0  0  0  0  0  0
    6.4057   -9.8550    0.0000 C   0  0  0  0  0  0  0  0  0  0  0  0
    6.4077  -11.4810    0.0000 C   0  0  0  0  0  0  0  0  0  0  0  0
    9.9178  -10.2400    0.0000 N   0  0  0  0  0  0  0  0  0  0  0  0
    9.2212  -11.4670    0.0000 N   0  0  0  0  0  0  0  0  0  0  0  0
    7.1331   -7.8122    0.0000 C   0  0  0  0  0  0  0  0  0  0  0  0
    8.5399   -7.8357    0.0000 C   0  0  0  0  0  0  0  0  0  0  0  0
    7.1188   -8.6309    0.0000 C   0  0  0  0  0  0  0  0  0  0  0  0
    8.5367   -8.6476    0.0000 C   0  0  0  0  0  0  0  0  0  0  0  0
    9.9241  -11.0560    0.0000 C   0  0  0  0  0  0  0  0  0  0  0  0
    7.8116  -11.4780    0.0000 F   0  0  0  0  0  0  0  0  0  0  0  0
    5.7039  -11.0726    0.0000 C   0  0  0  0  0  0  0  0  0  0  0  0
    5.0000  -11.4800    0.0000 Cl  0  0  0  0  0  0  0  0  0  0  0  0
    5.7051  -10.2587    0.0000 C   0  0  0  0  0  0  0  0  0  0  0  0
    8.5216  -11.0621    0.0000 C   0  0  0  0  0  0  0  0  0  0  0  0
    9.2129   -9.8392    0.0000 C   0  0  0  0  0  0  0  0  0  0  0  0
    7.8574   -6.6010    0.0000 S   0  0  0  0  0  0  0  0  0  0  0  0
    8.5689   -6.2062    0.0000 C   0  0  0  0  0  0  0  0  0  0  0  0
    6.8847   -6.2878    0.0000 O   0  0  0  0  0  0  0  0  0  0  0  0
    7.5318   -5.6008    0.0000 O   0  0  0  0  0  0  0  0  0  0  0  0
    9.2620   -6.6272    0.0000 C   0  0  0  0  0  0  0  0  0  0  0  0
    9.9729   -6.2330    0.0000 C   0  0  0  0  0  0  0  0  0  0  0  0
    9.9871   -5.4186    0.0000 C   0  0  0  0  0  0  0  0  0  0  0  0
    9.2845   -5.0000    0.0000 C   0  0  0  0  0  0  0  0  0  0  0  0
    8.5764   -5.3966    0.0000 C   0  0  0  0  0  0  0  0  0  0  0  0
   10.6988   -5.0223    0.0000 C   0  0  0  0  0  0  0  0  0  0  0  0
   11.3978   -5.4405    0.0000 F   0  0  0  0  0  0  0  0  0  0  0  0
   10.7114   -4.2079    0.0000 F   0  0  0  0  0  0  0  0  0  0  0  0
   10.8973   -5.8123    0.0000 F   0  0  0  0  0  0  0  0  0  0  0  0
 28 31  1  0  0  0  0
 31 32  1  0  0  0  0
 31 33  1  0  0  0  0
 31 34  1  0  0  0  0
  2  6  1  0  0  0  0
  5  1  1  0  0  0  0
 17  8  1  0  0  0  0
  6 20  2  0  0  0  0
  1  7  2  0  0  0  0
 20 10  1  0  0  0  0
  7 19  1  0  0  0  0
  3 22  1  0  0  0  0
 10 15  2  0  0  0  0
 22 23  1  0  0  0  0
 19 17  2  0  0  0  0
 22 24  2  0  0  0  0
 15  9  1  0  0  0  0
  4 14  1  0  0  0  0
 22 25  2  0  0  0  0
  4  2  1  0  0  0  0
 23 26  2  0  0  0  0
  1  2  1  0  0  0  0
 26 27  1  0  0  0  0
 17 18  1  0  0  0  0
 27 28  2  0  0  0  0
  9 21  2  0  0  0  0
 28 29  1  0  0  0  0
  4 13  1  0  0  0  0
 29 30  2  0  0  0  0
 30 23  1  0  0  0  0
 14 12  1  0  0  0  0
 12  3  1  0  0  0  0
  3 11  1  0  0  0  0
 11 13  1  0  0  0  0
  5 16  1  0  0  0  0
 21  6  1  0  0  0  0
  8  5  2  0  0  0  0
M  END
> <Molecule Name>
DNDI1435840

> <CDD Number>
CDD-1535499

> <IC50_uM>
0.076 (n=1)

$$$$

SketchEl molfile

 31 34  0  0  0  0  0  0  0  0999 V2000
    9.2541   -6.8158    0.0000 C   0  0  0  0  0  0  0  0  0  0  0  0
    9.9478   -7.2334    0.0000 C   0  0  0  0  0  0  0  0  0  0  0  0
   10.6550   -6.8369    0.0000 C   0  0  0  0  0  0  0  0  0  0  0  0
   10.6653   -6.0246    0.0000 C   0  0  0  0  0  0  0  0  0  0  0  0
    9.9625   -5.6104    0.0000 C   0  0  0  0  0  0  0  0  0  0  0  0
    9.2582   -6.0092    0.0000 C   0  0  0  0  0  0  0  0  0  0  0  0
    8.5599   -5.5998    0.0000 C   0  0  0  0  0  0  0  0  0  0  0  0
    7.8562   -5.9998    0.0000 S   0  0  0  0  0  0  0  0  0  0  0  0
    7.1048   -9.6519    0.0000 C   0  0  0  0  0  0  0  0  0  0  0  0
    7.8108   -9.2457    0.0000 C   0  0  0  0  0  0  0  0  0  0  0  0
    7.8425   -6.8130    0.0000 N   0  0  0  0  0  0  0  0  0  0  0  0
    7.8211   -8.4348    0.0000 N   0  0  0  0  0  0  0  0  0  0  0  0
    7.1079  -10.4690    0.0000 C   0  0  0  0  0  0  0  0  0  0  0  0
    8.5203   -9.6460    0.0000 C   0  0  0  0  0  0  0  0  0  0  0  0
    6.4051   -9.2524    0.0000 C   0  0  0  0  0  0  0  0  0  0  0  0
    6.4071  -10.8777    0.0000 C   0  0  0  0  0  0  0  0  0  0  0  0
    9.9157   -9.6372    0.0000 N   0  0  0  0  0  0  0  0  0  0  0  0
    9.2194  -10.8637    0.0000 N   0  0  0  0  0  0  0  0  0  0  0  0
    7.1322   -7.2105    0.0000 C   0  0  0  0  0  0  0  0  0  0  0  0
    8.5384   -7.2339    0.0000 C   0  0  0  0  0  0  0  0  0  0  0  0
    7.1179   -8.0289    0.0000 C   0  0  0  0  0  0  0  0  0  0  0  0
    8.5352   -8.0455    0.0000 C   0  0  0  0  0  0  0  0  0  0  0  0
    9.9220  -10.4529    0.0000 C   0  0  0  0  0  0  0  0  0  0  0  0
    7.8104  -10.8747    0.0000 F   0  0  0  0  0  0  0  0  0  0  0  0
    5.7036  -10.4695    0.0000 C   0  0  0  0  0  0  0  0  0  0  0  0
    5.0000  -10.8767    0.0000 Cl  0  0  0  0  0  0  0  0  0  0  0  0
    5.7048   -9.6559    0.0000 C   0  0  0  0  0  0  0  0  0  0  0  0
    8.5200  -10.4590    0.0000 C   0  0  0  0  0  0  0  0  0  0  0  0
    9.2111   -9.2366    0.0000 C   0  0  0  0  0  0  0  0  0  0  0  0
    6.8839   -5.6867    0.0000 O   0  0  0  0  0  0  0  0  0  0  0  0
    7.5307   -5.0000    0.0000 O   0  0  0  0  0  0  0  0  0  0  0  0
  1  2  2  0  0  0  0
  6  7  1  0  0  0  0
  3  4  2  0  0  0  0
  7  8  1  0  0  0  0
  4  5  1  0  0  0  0
  2  3  1  0  0  0  0
  5  6  2  0  0  0  0
  6  1  1  0  0  0  0
 10 14  1  0  0  0  0
 13  9  1  0  0  0  0
 25 16  1  0  0  0  0
 14 28  2  0  0  0  0
  9 15  2  0  0  0  0
 28 18  1  0  0  0  0
 15 27  1  0  0  0  0
 11  8  1  0  0  0  0
 18 23  2  0  0  0  0
 27 25  2  0  0  0  0
  8 30  2  0  0  0  0
 23 17  1  0  0  0  0
 12 22  1  0  0  0  0
  8 31  2  0  0  0  0
 12 10  1  0  0  0  0
  9 10  1  0  0  0  0
 25 26  1  0  0  0  0
 17 29  2  0  0  0  0
 12 21  1  0  0  0  0
 22 20  1  0  0  0  0
 20 11  1  0  0  0  0
 11 19  1  0  0  0  0
 19 21  1  0  0  0  0
 13 24  1  0  0  0  0
 29 14  1  0  0  0  0
 16 13  2  0  0  0  0
M  END
> <Molecule Name>
DNDI1435841

> <CDD Number>
CDD-1535500

> <IC50_uM>
0.072 (n=1)

$$$$

SketchEl molfile

 31 34  0  0  0  0  0  0  0  0999 V2000
   10.7265   -5.8249    0.0000 C   0  0  0  0  0  0  0  0  0  0  0  0
   11.4311   -6.2539    0.0000 C   0  0  0  0  0  0  0  0  0  0  0  0
    7.8548   -7.4484    0.0000 N   0  0  0  0  0  0  0  0  0  0  0  0
    8.5718   -7.0410    0.0000 C   0  0  0  0  0  0  0  0  0  0  0  0
    9.2800   -7.4607    0.0000 C   0  0  0  0  0  0  0  0  0  0  0  0
    9.9948   -7.0568    0.0000 C   0  0  0  0  0  0  0  0  0  0  0  0
   10.0048   -6.2319    0.0000 N   0  0  0  0  0  0  0  0  0  0  0  0
    9.2936   -5.8124    0.0000 C   0  0  0  0  0  0  0  0  0  0  0  0
    8.5726   -6.2180    0.0000 C   0  0  0  0  0  0  0  0  0  0  0  0
    7.8608   -8.2799    0.0000 C   0  0  0  0  0  0  0  0  0  0  0  0
    8.5782   -8.6847    0.0000 C   0  0  0  0  0  0  0  0  0  0  0  0
    9.2898   -9.9207    0.0000 N   0  0  0  0  0  0  0  0  0  0  0  0
    7.1422   -8.6906    0.0000 C   0  0  0  0  0  0  0  0  0  0  0  0
    6.4301   -8.2867    0.0000 C   0  0  0  0  0  0  0  0  0  0  0  0
    7.1454   -9.5215    0.0000 C   0  0  0  0  0  0  0  0  0  0  0  0
    5.7160   -9.5220    0.0000 C   0  0  0  0  0  0  0  0  0  0  0  0
    8.5779   -9.5114    0.0000 C   0  0  0  0  0  0  0  0  0  0  0  0
    5.7173   -8.6947    0.0000 C   0  0  0  0  0  0  0  0  0  0  0  0
    6.4321   -9.9348    0.0000 C   0  0  0  0  0  0  0  0  0  0  0  0
   10.0049   -9.5053    0.0000 C   0  0  0  0  0  0  0  0  0  0  0  0
    9.2813   -8.2707    0.0000 N   0  0  0  0  0  0  0  0  0  0  0  0
    9.9985   -8.6758    0.0000 C   0  0  0  0  0  0  0  0  0  0  0  0
    5.0000   -9.9350    0.0000 F   0  0  0  0  0  0  0  0  0  0  0  0
    7.8604   -9.9318    0.0000 F   0  0  0  0  0  0  0  0  0  0  0  0
   10.7403   -5.0000    0.0000 O   0  0  0  0  0  0  0  0  0  0  0  0
   11.4097   -7.0789    0.0000 C   0  0  0  0  0  0  0  0  0  0  0  0
   12.1135   -7.5078    0.0000 C   0  0  0  0  0  0  0  0  0  0  0  0
   12.8384   -7.1120    0.0000 C   0  0  0  0  0  0  0  0  0  0  0  0
   12.8550   -6.2829    0.0000 C   0  0  0  0  0  0  0  0  0  0  0  0
   12.1505   -5.8577    0.0000 C   0  0  0  0  0  0  0  0  0  0  0  0
   13.5444   -7.5405    0.0000 Cl  0  0  0  0  0  0  0  0  0  0  0  0
 22 21  2  0  0  0  0
 21 11  1  0  0  0  0
 19 15  2  0  0  0  0
 10 11  1  0  0  0  0
 15 13  1  0  0  0  0
 16 19  1  0  0  0  0
 11 17  2  0  0  0  0
 13 14  2  0  0  0  0
 17 12  1  0  0  0  0
 14 18  1  0  0  0  0
 12 20  2  0  0  0  0
 18 16  2  0  0  0  0
 20 22  1  0  0  0  0
 16 23  1  0  0  0  0
 15 24  1  0  0  0  0
 10  3  1  0  0  0  0
  7  1  1  0  0  0  0
  7  8  1  0  0  0  0
  8  9  1  0  0  0  0
  3  4  1  0  0  0  0
  1 25  2  0  0  0  0
  4  5  1  0  0  0  0
  2 26  2  0  0  0  0
  4  9  1  0  0  0  0
 26 27  1  0  0  0  0
  5  6  1  0  0  0  0
 27 28  2  0  0  0  0
  6  7  1  0  0  0  0
 28 29  1  0  0  0  0
  1  2  1  0  0  0  0
 29 30  2  0  0  0  0
 30  2  1  0  0  0  0
 13 10  1  0  0  0  0
 28 31  1  0  0  0  0
M  END
> <Molecule Name>
DNDI1435842

> <CDD Number>
CDD-1535501

> <IC50_uM>
0.26 (n=1)

$$$$

SketchEl molfile

 26 28  0  0  0  0  0  0  0  0999 V2000
   10.7273   -5.8250    0.0000 C   0  0  0  0  0  0  0  0  0  0  0  0
   11.4321   -6.2541    0.0000 C   0  0  0  0  0  0  0  0  0  0  0  0
    7.8552   -7.4487    0.0000 N   0  0  0  0  0  0  0  0  0  0  0  0
    8.5723   -7.0413    0.0000 C   0  0  0  0  0  0  0  0  0  0  0  0
    9.2806   -7.4610    0.0000 C   0  0  0  0  0  0  0  0  0  0  0  0
    9.9956   -7.0571    0.0000 C   0  0  0  0  0  0  0  0  0  0  0  0
   10.0055   -6.2320    0.0000 N   0  0  0  0  0  0  0  0  0  0  0  0
    9.2943   -5.8125    0.0000 C   0  0  0  0  0  0  0  0  0  0  0  0
    8.5731   -6.2181    0.0000 C   0  0  0  0  0  0  0  0  0  0  0  0
    7.8612   -8.2804    0.0000 C   0  0  0  0  0  0  0  0  0  0  0  0
    8.5788   -8.6852    0.0000 C   0  0  0  0  0  0  0  0  0  0  0  0
    9.2904   -9.9214    0.0000 N   0  0  0  0  0  0  0  0  0  0  0  0
    7.1425   -8.6912    0.0000 C   0  0  0  0  0  0  0  0  0  0  0  0
    6.4303   -8.2871    0.0000 C   0  0  0  0  0  0  0  0  0  0  0  0
    7.1457   -9.5221    0.0000 C   0  0  0  0  0  0  0  0  0  0  0  0
    5.7161   -9.5227    0.0000 C   0  0  0  0  0  0  0  0  0  0  0  0
    8.5785   -9.5120    0.0000 C   0  0  0  0  0  0  0  0  0  0  0  0
    5.7174   -8.6952    0.0000 C   0  0  0  0  0  0  0  0  0  0  0  0
    6.4323   -9.9355    0.0000 C   0  0  0  0  0  0  0  0  0  0  0  0
   10.0056   -9.5059    0.0000 C   0  0  0  0  0  0  0  0  0  0  0  0
    9.2820   -8.2711    0.0000 N   0  0  0  0  0  0  0  0  0  0  0  0
    9.9992   -8.6763    0.0000 C   0  0  0  0  0  0  0  0  0  0  0  0
    5.0000   -9.9357    0.0000 F   0  0  0  0  0  0  0  0  0  0  0  0
    7.8608   -9.9325    0.0000 F   0  0  0  0  0  0  0  0  0  0  0  0
   10.7411   -5.0000    0.0000 O   0  0  0  0  0  0  0  0  0  0  0  0
   12.1515   -5.8578    0.0000 C   0  0  0  0  0  0  0  0  0  0  0  0
 22 21  2  0  0  0  0
 21 11  1  0  0  0  0
 19 15  2  0  0  0  0
 10 11  1  0  0  0  0
 15 13  1  0  0  0  0
 16 19  1  0  0  0  0
 11 17  2  0  0  0  0
 13 14  2  0  0  0  0
 17 12  1  0  0  0  0
 14 18  1  0  0  0  0
 12 20  2  0  0  0  0
 18 16  2  0  0  0  0
 20 22  1  0  0  0  0
 16 23  1  0  0  0  0
 15 24  1  0  0  0  0
 10  3  1  0  0  0  0
  7  1  1  0  0  0  0
  7  8  1  0  0  0  0
  8  9  1  0  0  0  0
  3  4  1  0  0  0  0
  1 25  2  0  0  0  0
  4  5  1  0  0  0  0
  4  9  1  0  0  0  0
  5  6  1  0  0  0  0
  6  7  1  0  0  0  0
  1  2  1  0  0  0  0
 26  2  1  0  0  0  0
 13 10  1  0  0  0  0
M  END
> <Molecule Name>
DNDI1435843

> <CDD Number>
CDD-1535502

> <IC50_uM>
> 1.0 (n=1)

$$$$

SketchEl molfile

 31 34  0  0  0  0  0  0  0  0999 V2000
   10.7324   -6.1839    0.0000 C   0  0  0  0  0  0  0  0  0  0  0  0
   11.4378   -6.6134    0.0000 C   0  0  0  0  0  0  0  0  0  0  0  0
    7.8578   -7.8091    0.0000 N   0  0  0  0  0  0  0  0  0  0  0  0
    8.5755   -7.4013    0.0000 C   0  0  0  0  0  0  0  0  0  0  0  0
    9.2844   -7.8214    0.0000 C   0  0  0  0  0  0  0  0  0  0  0  0
   10.0000   -7.4171    0.0000 C   0  0  0  0  0  0  0  0  0  0  0  0
   10.0100   -6.5913    0.0000 N   0  0  0  0  0  0  0  0  0  0  0  0
    9.2981   -6.1715    0.0000 C   0  0  0  0  0  0  0  0  0  0  0  0
    8.5763   -6.5774    0.0000 C   0  0  0  0  0  0  0  0  0  0  0  0
    7.8638   -8.6415    0.0000 C   0  0  0  0  0  0  0  0  0  0  0  0
    8.5819   -9.0467    0.0000 C   0  0  0  0  0  0  0  0  0  0  0  0
    9.2943  -10.2840    0.0000 N   0  0  0  0  0  0  0  0  0  0  0  0
    7.1444   -9.0526    0.0000 C   0  0  0  0  0  0  0  0  0  0  0  0
    6.4316   -8.6482    0.0000 C   0  0  0  0  0  0  0  0  0  0  0  0
    7.1476   -9.8844    0.0000 C   0  0  0  0  0  0  0  0  0  0  0  0
    5.7167   -9.8849    0.0000 C   0  0  0  0  0  0  0  0  0  0  0  0
    8.5817   -9.8742    0.0000 C   0  0  0  0  0  0  0  0  0  0  0  0
    5.7180   -9.0567    0.0000 C   0  0  0  0  0  0  0  0  0  0  0  0
    6.4336  -10.2981    0.0000 C   0  0  0  0  0  0  0  0  0  0  0  0
   10.0101   -9.8681    0.0000 C   0  0  0  0  0  0  0  0  0  0  0  0
    9.2858   -8.6323    0.0000 N   0  0  0  0  0  0  0  0  0  0  0  0
   10.0037   -9.0378    0.0000 C   0  0  0  0  0  0  0  0  0  0  0  0
    5.0000  -10.2983    0.0000 F   0  0  0  0  0  0  0  0  0  0  0  0
    7.8634  -10.2951    0.0000 F   0  0  0  0  0  0  0  0  0  0  0  0
   10.7462   -5.3582    0.0000 O   0  0  0  0  0  0  0  0  0  0  0  0
   12.1579   -6.2168    0.0000 C   0  0  0  0  0  0  0  0  0  0  0  0
   12.8582   -6.6440    0.0000 C   0  0  0  0  0  0  0  0  0  0  0  0
   13.5778   -6.2481    0.0000 C   0  0  0  0  0  0  0  0  0  0  0  0
   13.5948   -5.4253    0.0000 C   0  0  0  0  0  0  0  0  0  0  0  0
   12.8862   -5.0000    0.0000 C   0  0  0  0  0  0  0  0  0  0  0  0
   12.1695   -5.3984    0.0000 C   0  0  0  0  0  0  0  0  0  0  0  0
 15 13  1  0  0  0  0
 16 19  1  0  0  0  0
 11 17  2  0  0  0  0
 13 14  2  0  0  0  0
 17 12  1  0  0  0  0
 14 18  1  0  0  0  0
 12 20  2  0  0  0  0
 18 16  2  0  0  0  0
 20 22  1  0  0  0  0
 16 23  1  0  0  0  0
 15 24  1  0  0  0  0
 10  3  1  0  0  0  0
  7  1  1  0  0  0  0
  7  8  1  0  0  0  0
  8  9  1  0  0  0  0
  3  4  1  0  0  0  0
  1 25  2  0  0  0  0
  4  5  1  0  0  0  0
  4  9  1  0  0  0  0
  5  6  1  0  0  0  0
  6  7  1  0  0  0  0
  1  2  1  0  0  0  0
 26  2  1  0  0  0  0
 13 10  1  0  0  0  0
 26 27  2  0  0  0  0
 22 21  2  0  0  0  0
 27 28  1  0  0  0  0
 21 11  1  0  0  0  0
 28 29  2  0  0  0  0
 19 15  2  0  0  0  0
 29 30  1  0  0  0  0
 10 11  1  0  0  0  0
 30 31  2  0  0  0  0
 31 26  1  0  0  0  0
M  END
> <Molecule Name>
DNDI1435844

> <CDD Number>
CDD-1535503

> <IC50_uM>
0.36 (n=1)

$$$$

SketchEl molfile

 27 29  0  0  0  0  0  0  0  0999 V2000
   10.7273   -5.8250    0.0000 C   0  0  0  0  0  0  0  0  0  0  0  0
   11.4321   -6.2541    0.0000 N   0  0  0  0  0  0  0  0  0  0  0  0
    7.8552   -7.4487    0.0000 N   0  0  0  0  0  0  0  0  0  0  0  0
    8.5723   -7.0413    0.0000 C   0  0  0  0  0  0  0  0  0  0  0  0
    9.2806   -7.4611    0.0000 C   0  0  0  0  0  0  0  0  0  0  0  0
    9.9955   -7.0571    0.0000 C   0  0  0  0  0  0  0  0  0  0  0  0
   10.0055   -6.2320    0.0000 N   0  0  0  0  0  0  0  0  0  0  0  0
    9.2942   -5.8126    0.0000 C   0  0  0  0  0  0  0  0  0  0  0  0
    8.5731   -6.2181    0.0000 C   0  0  0  0  0  0  0  0  0  0  0  0
    7.8612   -8.2804    0.0000 C   0  0  0  0  0  0  0  0  0  0  0  0
    8.5787   -8.6852    0.0000 C   0  0  0  0  0  0  0  0  0  0  0  0
    9.2904   -9.9214    0.0000 N   0  0  0  0  0  0  0  0  0  0  0  0
    7.1425   -8.6912    0.0000 C   0  0  0  0  0  0  0  0  0  0  0  0
    6.4303   -8.2871    0.0000 C   0  0  0  0  0  0  0  0  0  0  0  0
    7.1457   -9.5221    0.0000 C   0  0  0  0  0  0  0  0  0  0  0  0
    5.7161   -9.5227    0.0000 C   0  0  0  0  0  0  0  0  0  0  0  0
    8.5785   -9.5120    0.0000 C   0  0  0  0  0  0  0  0  0  0  0  0
    5.7174   -8.6952    0.0000 C   0  0  0  0  0  0  0  0  0  0  0  0
    6.4323   -9.9355    0.0000 C   0  0  0  0  0  0  0  0  0  0  0  0
   10.0056   -9.5059    0.0000 C   0  0  0  0  0  0  0  0  0  0  0  0
    9.2819   -8.2711    0.0000 N   0  0  0  0  0  0  0  0  0  0  0  0
    9.9992   -8.6763    0.0000 C   0  0  0  0  0  0  0  0  0  0  0  0
    5.0000   -9.9357    0.0000 F   0  0  0  0  0  0  0  0  0  0  0  0
    7.8608   -9.9325    0.0000 F   0  0  0  0  0  0  0  0  0  0  0  0
   10.7411   -5.0000    0.0000 O   0  0  0  0  0  0  0  0  0  0  0  0
   12.1515   -5.8578    0.0000 C   0  0  0  0  0  0  0  0  0  0  0  0
   11.4141   -7.0790    0.0000 C   0  0  0  0  0  0  0  0  0  0  0  0
 15 13  1  0  0  0  0
 16 19  1  0  0  0  0
 11 17  2  0  0  0  0
 13 14  2  0  0  0  0
 17 12  1  0  0  0  0
 14 18  1  0  0  0  0
 12 20  2  0  0  0  0
 18 16  2  0  0  0  0
 20 22  1  0  0  0  0
 16 23  1  0  0  0  0
 15 24  1  0  0  0  0
 10  3  1  0  0  0  0
  7  1  1  0  0  0  0
  7  8  1  0  0  0  0
  8  9  1  0  0  0  0
  3  4  1  0  0  0  0
  1 25  2  0  0  0  0
  4  5  1  0  0  0  0
  4  9  1  0  0  0  0
  5  6  1  0  0  0  0
  6  7  1  0  0  0  0
  1  2  1  0  0  0  0
 26  2  1  0  0  0  0
 13 10  1  0  0  0  0
 22 21  2  0  0  0  0
 21 11  1  0  0  0  0
 19 15  2  0  0  0  0
 10 11  1  0  0  0  0
  2 27  1  0  0  0  0
M  END
> <Molecule Name>
DNDI1435845

> <CDD Number>
CDD-1535504

> <IC50_uM>
> 1.0 (n=1)

$$$$

SketchEl molfile

 30 33  0  0  0  0  0  0  0  0999 V2000
    7.1382   -9.1357    0.0000 C   0  0  0  0  0  0  0  0  0  0  0  0
    7.8570   -8.7249    0.0000 C   0  0  0  0  0  0  0  0  0  0  0  0
    7.8890   -6.2504    0.0000 N   0  0  0  0  0  0  0  0  0  0  0  0
    7.8674   -7.9000    0.0000 N   0  0  0  0  0  0  0  0  0  0  0  0
    7.1414   -9.9668    0.0000 C   0  0  0  0  0  0  0  0  0  0  0  0
    8.5746   -9.1297    0.0000 C   0  0  0  0  0  0  0  0  0  0  0  0
    6.4259   -8.7316    0.0000 C   0  0  0  0  0  0  0  0  0  0  0  0
    6.4279  -10.3802    0.0000 C   0  0  0  0  0  0  0  0  0  0  0  0
    9.9952   -9.1209    0.0000 C   0  0  0  0  0  0  0  0  0  0  0  0
    9.2864  -10.3661    0.0000 N   0  0  0  0  0  0  0  0  0  0  0  0
    7.1659   -6.6570    0.0000 C   0  0  0  0  0  0  0  0  0  0  0  0
    8.5929   -6.6807    0.0000 C   0  0  0  0  0  0  0  0  0  0  0  0
    7.1514   -7.4848    0.0000 C   0  0  0  0  0  0  0  0  0  0  0  0
    8.5896   -7.5016    0.0000 C   0  0  0  0  0  0  0  0  0  0  0  0
   10.0016   -9.9505    0.0000 C   0  0  0  0  0  0  0  0  0  0  0  0
    5.7116   -9.9673    0.0000 C   0  0  0  0  0  0  0  0  0  0  0  0
    5.0000  -10.3792    0.0000 Cl  0  0  0  0  0  0  0  0  0  0  0  0
    5.7129   -9.1397    0.0000 C   0  0  0  0  0  0  0  0  0  0  0  0
    8.5743   -9.9567    0.0000 C   0  0  0  0  0  0  0  0  0  0  0  0
    9.2779   -8.7156    0.0000 C   0  0  0  0  0  0  0  0  0  0  0  0
    7.9040   -5.4255    0.0000 C   0  0  0  0  0  0  0  0  0  0  0  0
    8.6259   -5.0260    0.0000 N   0  0  0  0  0  0  0  0  0  0  0  0
    7.1971   -5.0000    0.0000 O   0  0  0  0  0  0  0  0  0  0  0  0
    9.3328   -5.4515    0.0000 C   0  0  0  0  0  0  0  0  0  0  0  0
    9.3161   -6.2768    0.0000 C   0  0  0  0  0  0  0  0  0  0  0  0
   10.0221   -6.7022    0.0000 C   0  0  0  0  0  0  0  0  0  0  0  0
   10.7450   -6.3027    0.0000 C   0  0  0  0  0  0  0  0  0  0  0  0
   10.7575   -5.4734    0.0000 C   0  0  0  0  0  0  0  0  0  0  0  0
   10.0508   -5.0518    0.0000 C   0  0  0  0  0  0  0  0  0  0  0  0
    7.8566  -10.3771    0.0000 F   0  0  0  0  0  0  0  0  0  0  0  0
 10 15  2  0  0  0  0
 18 16  2  0  0  0  0
 15  9  1  0  0  0  0
  4 14  1  0  0  0  0
  4  2  1  0  0  0  0
  1  2  1  0  0  0  0
 16 17  1  0  0  0  0
  9 20  2  0  0  0  0
  4 13  1  0  0  0  0
 14 12  1  0  0  0  0
 12  3  1  0  0  0  0
  3 11  1  0  0  0  0
 11 13  1  0  0  0  0
 20  6  1  0  0  0  0
  3 21  1  0  0  0  0
  8  5  2  0  0  0  0
 21 22  1  0  0  0  0
  2  6  1  0  0  0  0
 21 23  2  0  0  0  0
  5  1  1  0  0  0  0
 22 24  1  0  0  0  0
 16  8  1  0  0  0  0
 24 25  2  0  0  0  0
  6 19  2  0  0  0  0
 25 26  1  0  0  0  0
  1  7  2  0  0  0  0
 26 27  2  0  0  0  0
 19 10  1  0  0  0  0
 27 28  1  0  0  0  0
  7 18  1  0  0  0  0
 28 29  2  0  0  0  0
 29 24  1  0  0  0  0
  5 30  1  0  0  0  0
M  END
> <Molecule Name>
DNDI1435846

> <CDD Number>
CDD-1535505

> <IC50_uM>
0.0062 (n=1)

$$$$

SketchEl molfile

 28 31  0  0  0  0  0  0  0  0999 V2000
    7.1383  -10.3316    0.0000 C   0  0  0  0  0  0  0  0  0  0  0  0
    7.8572   -9.9208    0.0000 C   0  0  0  0  0  0  0  0  0  0  0  0
    7.8892   -7.4461    0.0000 N   0  0  0  0  0  0  0  0  0  0  0  0
    7.8676   -9.0958    0.0000 N   0  0  0  0  0  0  0  0  0  0  0  0
    7.1415  -11.1628    0.0000 C   0  0  0  0  0  0  0  0  0  0  0  0
    8.5749  -10.3256    0.0000 C   0  0  0  0  0  0  0  0  0  0  0  0
    6.4260   -9.9275    0.0000 C   0  0  0  0  0  0  0  0  0  0  0  0
    6.4280  -11.5762    0.0000 C   0  0  0  0  0  0  0  0  0  0  0  0
    9.9956  -10.3168    0.0000 C   0  0  0  0  0  0  0  0  0  0  0  0
    9.2867  -11.5621    0.0000 N   0  0  0  0  0  0  0  0  0  0  0  0
    7.1661   -7.8528    0.0000 C   0  0  0  0  0  0  0  0  0  0  0  0
    8.5932   -7.8765    0.0000 C   0  0  0  0  0  0  0  0  0  0  0  0
    7.1516   -8.6806    0.0000 C   0  0  0  0  0  0  0  0  0  0  0  0
    8.5899   -8.6974    0.0000 C   0  0  0  0  0  0  0  0  0  0  0  0
   10.0020  -11.1465    0.0000 C   0  0  0  0  0  0  0  0  0  0  0  0
    5.7117  -11.1633    0.0000 C   0  0  0  0  0  0  0  0  0  0  0  0
    5.0000  -11.5752    0.0000 Cl  0  0  0  0  0  0  0  0  0  0  0  0
    5.7130  -10.3357    0.0000 C   0  0  0  0  0  0  0  0  0  0  0  0
    8.5746  -11.1526    0.0000 C   0  0  0  0  0  0  0  0  0  0  0  0
    9.2782   -9.9115    0.0000 C   0  0  0  0  0  0  0  0  0  0  0  0
    7.9042   -6.6211    0.0000 C   0  0  0  0  0  0  0  0  0  0  0  0
    7.1973   -6.1956    0.0000 O   0  0  0  0  0  0  0  0  0  0  0  0
    8.6262   -6.2216    0.0000 C   0  0  0  0  0  0  0  0  0  0  0  0
    9.3309   -6.6501    0.0000 C   0  0  0  0  0  0  0  0  0  0  0  0
   10.0524   -6.2513    0.0000 C   0  0  0  0  0  0  0  0  0  0  0  0
   10.0679   -5.4254    0.0000 C   0  0  0  0  0  0  0  0  0  0  0  0
    9.3559   -5.0000    0.0000 C   0  0  0  0  0  0  0  0  0  0  0  0
    8.6373   -5.4012    0.0000 C   0  0  0  0  0  0  0  0  0  0  0  0
  1  2  1  0  0  0  0
 16 17  1  0  0  0  0
  9 20  2  0  0  0  0
  4 13  1  0  0  0  0
 14 12  1  0  0  0  0
 12  3  1  0  0  0  0
  3 11  1  0  0  0  0
 11 13  1  0  0  0  0
 20  6  1  0  0  0  0
  3 21  1  0  0  0  0
  8  5  2  0  0  0  0
  2  6  1  0  0  0  0
 21 22  2  0  0  0  0
  5  1  1  0  0  0  0
 16  8  1  0  0  0  0
  6 19  2  0  0  0  0
  1  7  2  0  0  0  0
 19 10  1  0  0  0  0
  7 18  1  0  0  0  0
 21 23  1  0  0  0  0
 10 15  2  0  0  0  0
 23 24  2  0  0  0  0
 18 16  2  0  0  0  0
 24 25  1  0  0  0  0
 15  9  1  0  0  0  0
 25 26  2  0  0  0  0
  4 14  1  0  0  0  0
 26 27  1  0  0  0  0
  4  2  1  0  0  0  0
 27 28  2  0  0  0  0
 28 23  1  0  0  0  0
M  END
> <Molecule Name>
DNDI1435847

> <CDD Number>
CDD-1535506

> <IC50_uM>
0.068 (n=1)

$$$$

SketchEl molfile

 36 39  0  0  0  0  0  0  0  0999 V2000
   10.7251   -5.8247    0.0000 C   0  0  0  0  0  0  0  0  0  0  0  0
   11.4296   -6.2536    0.0000 C   0  0  0  0  0  0  0  0  0  0  0  0
    7.8541   -7.4477    0.0000 N   0  0  0  0  0  0  0  0  0  0  0  0
    8.5709   -7.0404    0.0000 C   0  0  0  0  0  0  0  0  0  0  0  0
    9.2790   -7.4601    0.0000 C   0  0  0  0  0  0  0  0  0  0  0  0
    9.9936   -7.0563    0.0000 C   0  0  0  0  0  0  0  0  0  0  0  0
   10.0035   -6.2315    0.0000 N   0  0  0  0  0  0  0  0  0  0  0  0
    9.2926   -5.8122    0.0000 C   0  0  0  0  0  0  0  0  0  0  0  0
    8.5717   -6.2176    0.0000 C   0  0  0  0  0  0  0  0  0  0  0  0
    7.8601   -8.2791    0.0000 C   0  0  0  0  0  0  0  0  0  0  0  0
    8.5774   -8.6837    0.0000 C   0  0  0  0  0  0  0  0  0  0  0  0
    9.2888   -9.9194    0.0000 N   0  0  0  0  0  0  0  0  0  0  0  0
    7.1416   -8.6897    0.0000 C   0  0  0  0  0  0  0  0  0  0  0  0
    6.4297   -8.2858    0.0000 C   0  0  0  0  0  0  0  0  0  0  0  0
    7.1448   -9.5204    0.0000 C   0  0  0  0  0  0  0  0  0  0  0  0
    5.7158   -9.5209    0.0000 C   0  0  0  0  0  0  0  0  0  0  0  0
    8.5771   -9.5103    0.0000 C   0  0  0  0  0  0  0  0  0  0  0  0
    5.7171   -8.6937    0.0000 C   0  0  0  0  0  0  0  0  0  0  0  0
    6.4317   -9.9336    0.0000 C   0  0  0  0  0  0  0  0  0  0  0  0
   10.0037   -9.5041    0.0000 C   0  0  0  0  0  0  0  0  0  0  0  0
    9.2803   -8.2698    0.0000 N   0  0  0  0  0  0  0  0  0  0  0  0
    9.9972   -8.6749    0.0000 C   0  0  0  0  0  0  0  0  0  0  0  0
   10.7388   -5.0000    0.0000 O   0  0  0  0  0  0  0  0  0  0  0  0
   11.4081   -7.0783    0.0000 C   0  0  0  0  0  0  0  0  0  0  0  0
   12.1117   -7.5071    0.0000 C   0  0  0  0  0  0  0  0  0  0  0  0
   12.8364   -7.1114    0.0000 C   0  0  0  0  0  0  0  0  0  0  0  0
   12.8531   -6.2825    0.0000 C   0  0  0  0  0  0  0  0  0  0  0  0
   12.1487   -5.8575    0.0000 C   0  0  0  0  0  0  0  0  0  0  0  0
    5.0000   -9.9338    0.0000 C   0  0  0  0  0  0  0  0  0  0  0  0
    4.2845   -9.5203    0.0000 F   0  0  0  0  0  0  0  0  0  0  0  0
    4.9996  -10.7601    0.0000 F   0  0  0  0  0  0  0  0  0  0  0  0
    4.7865   -9.1355    0.0000 F   0  0  0  0  0  0  0  0  0  0  0  0
   13.5423   -7.5399    0.0000 C   0  0  0  0  0  0  0  0  0  0  0  0
   13.5241   -8.3653    0.0000 F   0  0  0  0  0  0  0  0  0  0  0  0
   14.2662   -7.1428    0.0000 F   0  0  0  0  0  0  0  0  0  0  0  0
   12.9458   -8.1108    0.0000 F   0  0  0  0  0  0  0  0  0  0  0  0
 16 29  1  0  0  0  0
 29 30  1  0  0  0  0
 29 31  1  0  0  0  0
 29 32  1  0  0  0  0
 26 33  1  0  0  0  0
 33 34  1  0  0  0  0
 33 35  1  0  0  0  0
 33 36  1  0  0  0  0
  6  7  1  0  0  0  0
  1  2  1  0  0  0  0
 13 10  1  0  0  0  0
 22 21  2  0  0  0  0
 21 11  1  0  0  0  0
 19 15  2  0  0  0  0
 10 11  1  0  0  0  0
  2 24  2  0  0  0  0
 15 13  1  0  0  0  0
 24 25  1  0  0  0  0
 16 19  1  0  0  0  0
 25 26  2  0  0  0  0
 11 17  2  0  0  0  0
 26 27  1  0  0  0  0
 13 14  2  0  0  0  0
 27 28  2  0  0  0  0
 28  2  1  0  0  0  0
 17 12  1  0  0  0  0
 14 18  1  0  0  0  0
 12 20  2  0  0  0  0
 18 16  2  0  0  0  0
 20 22  1  0  0  0  0
 10  3  1  0  0  0  0
  7  1  1  0  0  0  0
  7  8  1  0  0  0  0
  8  9  1  0  0  0  0
  3  4  1  0  0  0  0
  1 23  2  0  0  0  0
  4  5  1  0  0  0  0
  4  9  1  0  0  0  0
  5  6  1  0  0  0  0
M  END
> <Molecule Name>
DNDI1435848

> <CDD Number>
CDD-1535507

> <IC50_uM>
0.082 (n=1)

$$$$

SketchEl molfile

 30 33  0  0  0  0  0  0  0  0999 V2000
    8.5595   -6.2049    0.0000 C   0  0  0  0  0  0  0  0  0  0  0  0
    7.8559   -6.6049    0.0000 S   0  0  0  0  0  0  0  0  0  0  0  0
    7.1045  -10.2565    0.0000 C   0  0  0  0  0  0  0  0  0  0  0  0
    7.8105   -9.8504    0.0000 C   0  0  0  0  0  0  0  0  0  0  0  0
    7.8422   -7.4180    0.0000 N   0  0  0  0  0  0  0  0  0  0  0  0
    7.8208   -9.0396    0.0000 N   0  0  0  0  0  0  0  0  0  0  0  0
    7.1077  -11.0735    0.0000 C   0  0  0  0  0  0  0  0  0  0  0  0
    8.5199  -10.2506    0.0000 C   0  0  0  0  0  0  0  0  0  0  0  0
    6.4050   -9.8571    0.0000 C   0  0  0  0  0  0  0  0  0  0  0  0
    6.4070  -11.4822    0.0000 C   0  0  0  0  0  0  0  0  0  0  0  0
    9.9151  -10.2419    0.0000 N   0  0  0  0  0  0  0  0  0  0  0  0
    9.2190  -11.4682    0.0000 N   0  0  0  0  0  0  0  0  0  0  0  0
    7.1320   -7.8154    0.0000 C   0  0  0  0  0  0  0  0  0  0  0  0
    8.5381   -7.8388    0.0000 C   0  0  0  0  0  0  0  0  0  0  0  0
    7.1176   -8.6337    0.0000 C   0  0  0  0  0  0  0  0  0  0  0  0
    8.5348   -8.6503    0.0000 C   0  0  0  0  0  0  0  0  0  0  0  0
    9.9215  -11.0574    0.0000 C   0  0  0  0  0  0  0  0  0  0  0  0
    7.8101  -11.4792    0.0000 F   0  0  0  0  0  0  0  0  0  0  0  0
    5.7035  -11.0740    0.0000 C   0  0  0  0  0  0  0  0  0  0  0  0
    5.0000  -11.4812    0.0000 Cl  0  0  0  0  0  0  0  0  0  0  0  0
    5.7048  -10.2605    0.0000 C   0  0  0  0  0  0  0  0  0  0  0  0
    8.5197  -11.0635    0.0000 C   0  0  0  0  0  0  0  0  0  0  0  0
    9.2106   -9.8413    0.0000 C   0  0  0  0  0  0  0  0  0  0  0  0
    6.8837   -6.2918    0.0000 O   0  0  0  0  0  0  0  0  0  0  0  0
    7.5304   -5.6052    0.0000 O   0  0  0  0  0  0  0  0  0  0  0  0
    9.2529   -6.6177    0.0000 C   0  0  0  0  0  0  0  0  0  0  0  0
    9.9544   -6.2212    0.0000 C   0  0  0  0  0  0  0  0  0  0  0  0
    9.9640   -5.4115    0.0000 C   0  0  0  0  0  0  0  0  0  0  0  0
    9.2660   -5.0000    0.0000 C   0  0  0  0  0  0  0  0  0  0  0  0
    8.5583   -5.3981    0.0000 C   0  0  0  0  0  0  0  0  0  0  0  0
  8 22  2  0  0  0  0
  3  9  2  0  0  0  0
 22 12  1  0  0  0  0
  9 21  1  0  0  0  0
  5  2  1  0  0  0  0
 12 17  2  0  0  0  0
 21 19  2  0  0  0  0
  2 24  2  0  0  0  0
 17 11  1  0  0  0  0
  6 16  1  0  0  0  0
  2 25  2  0  0  0  0
  6  4  1  0  0  0  0
  3  4  1  0  0  0  0
 19 20  1  0  0  0  0
 11 23  2  0  0  0  0
  6 15  1  0  0  0  0
 16 14  1  0  0  0  0
 14  5  1  0  0  0  0
  5 13  1  0  0  0  0
 13 15  1  0  0  0  0
  7 18  1  0  0  0  0
 23  8  1  0  0  0  0
 10  7  2  0  0  0  0
  1 26  1  0  0  0  0
  1  2  1  0  0  0  0
  4  8  1  0  0  0  0
  7  3  1  0  0  0  0
 19 10  1  0  0  0  0
  1 30  1  0  0  0  0
 26 27  1  0  0  0  0
 27 28  1  0  0  0  0
 28 29  1  0  0  0  0
 29 30  1  0  0  0  0
M  END
> <Molecule Name>
DNDI1435849

> <CDD Number>
CDD-1535508

> <IC50_uM>
0.018 (n=1)

$$$$

SketchEl molfile

 25 27  0  0  0  0  0  0  0  0999 V2000
    8.5439   -5.5971    0.0000 C   0  0  0  0  0  0  0  0  0  0  0  0
    7.8433   -5.9953    0.0000 S   0  0  0  0  0  0  0  0  0  0  0  0
    7.0953   -9.6309    0.0000 C   0  0  0  0  0  0  0  0  0  0  0  0
    7.7982   -9.2266    0.0000 C   0  0  0  0  0  0  0  0  0  0  0  0
    7.8297   -6.8049    0.0000 N   0  0  0  0  0  0  0  0  0  0  0  0
    7.8084   -8.4193    0.0000 N   0  0  0  0  0  0  0  0  0  0  0  0
    7.0984  -10.4443    0.0000 C   0  0  0  0  0  0  0  0  0  0  0  0
    8.5044   -9.6250    0.0000 C   0  0  0  0  0  0  0  0  0  0  0  0
    6.3988   -9.2332    0.0000 C   0  0  0  0  0  0  0  0  0  0  0  0
    6.4008  -10.8512    0.0000 C   0  0  0  0  0  0  0  0  0  0  0  0
    9.8935   -9.6163    0.0000 N   0  0  0  0  0  0  0  0  0  0  0  0
    9.2004  -10.8373    0.0000 N   0  0  0  0  0  0  0  0  0  0  0  0
    7.1226   -7.2005    0.0000 C   0  0  0  0  0  0  0  0  0  0  0  0
    8.5225   -7.2239    0.0000 C   0  0  0  0  0  0  0  0  0  0  0  0
    7.1083   -8.0152    0.0000 C   0  0  0  0  0  0  0  0  0  0  0  0
    8.5192   -8.0317    0.0000 C   0  0  0  0  0  0  0  0  0  0  0  0
    9.8998  -10.4283    0.0000 C   0  0  0  0  0  0  0  0  0  0  0  0
    7.7978  -10.8482    0.0000 F   0  0  0  0  0  0  0  0  0  0  0  0
    5.7004  -10.4448    0.0000 C   0  0  0  0  0  0  0  0  0  0  0  0
    5.0000  -10.8502    0.0000 Cl  0  0  0  0  0  0  0  0  0  0  0  0
    5.7016   -9.6349    0.0000 C   0  0  0  0  0  0  0  0  0  0  0  0
    8.5042  -10.4344    0.0000 C   0  0  0  0  0  0  0  0  0  0  0  0
    9.1921   -9.2175    0.0000 C   0  0  0  0  0  0  0  0  0  0  0  0
    6.8754   -5.6836    0.0000 O   0  0  0  0  0  0  0  0  0  0  0  0
    7.5193   -5.0000    0.0000 O   0  0  0  0  0  0  0  0  0  0  0  0
  8 22  2  0  0  0  0
  3  9  2  0  0  0  0
 22 12  1  0  0  0  0
  9 21  1  0  0  0  0
  5  2  1  0  0  0  0
 12 17  2  0  0  0  0
 21 19  2  0  0  0  0
  2 24  2  0  0  0  0
 17 11  1  0  0  0  0
  6 16  1  0  0  0  0
  2 25  2  0  0  0  0
  6  4  1  0  0  0  0
  3  4  1  0  0  0  0
 19 20  1  0  0  0  0
 11 23  2  0  0  0  0
  6 15  1  0  0  0  0
 16 14  1  0  0  0  0
 14  5  1  0  0  0  0
  5 13  1  0  0  0  0
 13 15  1  0  0  0  0
  7 18  1  0  0  0  0
 23  8  1  0  0  0  0
 10  7  2  0  0  0  0
  1  2  1  0  0  0  0
  4  8  1  0  0  0  0
  7  3  1  0  0  0  0
 19 10  1  0  0  0  0
M  END
> <Molecule Name>
DNDI1435850

> <CDD Number>
CDD-1535509

> <IC50_uM>
0.416124981225593 ร/รท 1.0960316526139 (n=2)

$$$$

SketchEl molfile

 26 28  0  0  0  0  0  0  0  0999 V2000
   10.6104   -5.9197    0.0000 S   0  0  0  0  0  0  0  0  0  0  0  0
   11.3008   -6.3400    0.0000 C   0  0  0  0  0  0  0  0  0  0  0  0
    7.7969   -7.5103    0.0000 N   0  0  0  0  0  0  0  0  0  0  0  0
    8.4994   -7.1111    0.0000 C   0  0  0  0  0  0  0  0  0  0  0  0
    9.1933   -7.5224    0.0000 C   0  0  0  0  0  0  0  0  0  0  0  0
    9.8936   -7.1266    0.0000 C   0  0  0  0  0  0  0  0  0  0  0  0
    9.9033   -6.3184    0.0000 N   0  0  0  0  0  0  0  0  0  0  0  0
    9.2066   -5.9075    0.0000 C   0  0  0  0  0  0  0  0  0  0  0  0
    8.5002   -6.3048    0.0000 C   0  0  0  0  0  0  0  0  0  0  0  0
    7.8028   -8.3250    0.0000 C   0  0  0  0  0  0  0  0  0  0  0  0
    8.5057   -8.7215    0.0000 C   0  0  0  0  0  0  0  0  0  0  0  0
    9.2029   -9.9325    0.0000 N   0  0  0  0  0  0  0  0  0  0  0  0
    7.0988   -8.7274    0.0000 C   0  0  0  0  0  0  0  0  0  0  0  0
    6.4011   -8.3316    0.0000 C   0  0  0  0  0  0  0  0  0  0  0  0
    7.1019   -9.5414    0.0000 C   0  0  0  0  0  0  0  0  0  0  0  0
    5.7015   -9.5419    0.0000 C   0  0  0  0  0  0  0  0  0  0  0  0
    8.5054   -9.5315    0.0000 C   0  0  0  0  0  0  0  0  0  0  0  0
    5.7027   -8.7313    0.0000 C   0  0  0  0  0  0  0  0  0  0  0  0
    6.4031   -9.9463    0.0000 C   0  0  0  0  0  0  0  0  0  0  0  0
    9.9035   -9.5255    0.0000 C   0  0  0  0  0  0  0  0  0  0  0  0
    9.1946   -8.3159    0.0000 N   0  0  0  0  0  0  0  0  0  0  0  0
    9.8972   -8.7128    0.0000 C   0  0  0  0  0  0  0  0  0  0  0  0
    5.0000   -9.9465    0.0000 F   0  0  0  0  0  0  0  0  0  0  0  0
    7.8024   -9.9433    0.0000 F   0  0  0  0  0  0  0  0  0  0  0  0
   10.1155   -5.0389    0.0000 O   0  0  0  0  0  0  0  0  0  0  0  0
   11.1651   -5.0000    0.0000 O   0  0  0  0  0  0  0  0  0  0  0  0
 15 13  1  0  0  0  0
 16 19  1  0  0  0  0
 11 17  2  0  0  0  0
 13 14  2  0  0  0  0
 17 12  1  0  0  0  0
 14 18  1  0  0  0  0
 12 20  2  0  0  0  0
 18 16  2  0  0  0  0
 20 22  1  0  0  0  0
 16 23  1  0  0  0  0
 15 24  1  0  0  0  0
 10  3  1  0  0  0  0
  7  1  1  0  0  0  0
  7  8  1  0  0  0  0
  8  9  1  0  0  0  0
  3  4  1  0  0  0  0
  1 25  2  0  0  0  0
  4  5  1  0  0  0  0
  4  9  1  0  0  0  0
  5  6  1  0  0  0  0
  6  7  1  0  0  0  0
  1  2  1  0  0  0  0
 13 10  1  0  0  0  0
 22 21  2  0  0  0  0
 21 11  1  0  0  0  0
 19 15  2  0  0  0  0
 10 11  1  0  0  0  0
  1 26  2  0  0  0  0
M  END
> <Molecule Name>
DNDI1435851

> <CDD Number>
CDD-1535510

> <IC50_uM>
0.68 (n=1)

$$$$

SketchEl molfile

 31 34  0  0  0  0  0  0  0  0999 V2000
   10.6313   -5.9231    0.0000 S   0  0  0  0  0  0  0  0  0  0  0  0
   11.3243   -6.3450    0.0000 C   0  0  0  0  0  0  0  0  0  0  0  0
    7.8074   -7.5196    0.0000 N   0  0  0  0  0  0  0  0  0  0  0  0
    8.5124   -7.1190    0.0000 C   0  0  0  0  0  0  0  0  0  0  0  0
    9.2089   -7.5317    0.0000 C   0  0  0  0  0  0  0  0  0  0  0  0
    9.9118   -7.1345    0.0000 C   0  0  0  0  0  0  0  0  0  0  0  0
    9.9216   -6.3233    0.0000 N   0  0  0  0  0  0  0  0  0  0  0  0
    9.2223   -5.9108    0.0000 C   0  0  0  0  0  0  0  0  0  0  0  0
    8.5132   -6.3096    0.0000 C   0  0  0  0  0  0  0  0  0  0  0  0
    7.8133   -8.3373    0.0000 C   0  0  0  0  0  0  0  0  0  0  0  0
    8.5188   -8.7353    0.0000 C   0  0  0  0  0  0  0  0  0  0  0  0
    9.2185   -9.9508    0.0000 N   0  0  0  0  0  0  0  0  0  0  0  0
    7.1066   -8.7412    0.0000 C   0  0  0  0  0  0  0  0  0  0  0  0
    6.4063   -8.3439    0.0000 C   0  0  0  0  0  0  0  0  0  0  0  0
    7.1097   -9.5583    0.0000 C   0  0  0  0  0  0  0  0  0  0  0  0
    5.7041   -9.5588    0.0000 C   0  0  0  0  0  0  0  0  0  0  0  0
    8.5185   -9.5483    0.0000 C   0  0  0  0  0  0  0  0  0  0  0  0
    5.7054   -8.7452    0.0000 C   0  0  0  0  0  0  0  0  0  0  0  0
    6.4083   -9.9647    0.0000 C   0  0  0  0  0  0  0  0  0  0  0  0
    9.9217   -9.5423    0.0000 C   0  0  0  0  0  0  0  0  0  0  0  0
    9.2102   -8.3282    0.0000 N   0  0  0  0  0  0  0  0  0  0  0  0
    9.9154   -8.7266    0.0000 C   0  0  0  0  0  0  0  0  0  0  0  0
    5.0000   -9.9649    0.0000 F   0  0  0  0  0  0  0  0  0  0  0  0
    7.8129   -9.9617    0.0000 F   0  0  0  0  0  0  0  0  0  0  0  0
   10.1346   -5.0390    0.0000 O   0  0  0  0  0  0  0  0  0  0  0  0
   11.1881   -5.0000    0.0000 O   0  0  0  0  0  0  0  0  0  0  0  0
   11.2995   -7.1559    0.0000 C   0  0  0  0  0  0  0  0  0  0  0  0
   11.9884   -7.5776    0.0000 C   0  0  0  0  0  0  0  0  0  0  0  0
   12.7026   -7.1920    0.0000 C   0  0  0  0  0  0  0  0  0  0  0  0
   12.7234   -6.3800    0.0000 C   0  0  0  0  0  0  0  0  0  0  0  0
   12.0301   -5.9537    0.0000 C   0  0  0  0  0  0  0  0  0  0  0  0
 17 12  1  0  0  0  0
 14 18  1  0  0  0  0
 12 20  2  0  0  0  0
 18 16  2  0  0  0  0
 20 22  1  0  0  0  0
 16 23  1  0  0  0  0
 15 24  1  0  0  0  0
 10  3  1  0  0  0  0
  7  1  1  0  0  0  0
  7  8  1  0  0  0  0
  8  9  1  0  0  0  0
  3  4  1  0  0  0  0
  1 25  2  0  0  0  0
  4  5  1  0  0  0  0
  4  9  1  0  0  0  0
  5  6  1  0  0  0  0
  6  7  1  0  0  0  0
  1  2  1  0  0  0  0
 13 10  1  0  0  0  0
 22 21  2  0  0  0  0
 21 11  1  0  0  0  0
 19 15  2  0  0  0  0
 10 11  1  0  0  0  0
  1 26  2  0  0  0  0
  2 27  1  0  0  0  0
 15 13  1  0  0  0  0
 16 19  1  0  0  0  0
 11 17  2  0  0  0  0
 13 14  2  0  0  0  0
  2 31  1  0  0  0  0
 27 28  1  0  0  0  0
 28 29  1  0  0  0  0
 29 30  1  0  0  0  0
 30 31  1  0  0  0  0
M  END
> <Molecule Name>
DNDI1449743

> <CDD Number>
CDD-1535511

> <IC50_uM>
0.42 (n=1)

$$$$

SketchEl molfile

 34 37  0  0  0  0  0  0  0  0999 V2000
   10.6387   -5.9244    0.0000 S   0  0  0  0  0  0  0  0  0  0  0  0
   11.3326   -6.3468    0.0000 C   0  0  0  0  0  0  0  0  0  0  0  0
    7.8111   -7.5230    0.0000 N   0  0  0  0  0  0  0  0  0  0  0  0
    8.5171   -7.1218    0.0000 C   0  0  0  0  0  0  0  0  0  0  0  0
    9.2144   -7.5351    0.0000 C   0  0  0  0  0  0  0  0  0  0  0  0
    9.9183   -7.1374    0.0000 C   0  0  0  0  0  0  0  0  0  0  0  0
    9.9281   -6.3251    0.0000 N   0  0  0  0  0  0  0  0  0  0  0  0
    9.2278   -5.9121    0.0000 C   0  0  0  0  0  0  0  0  0  0  0  0
    8.5178   -6.3114    0.0000 C   0  0  0  0  0  0  0  0  0  0  0  0
    7.8170   -8.3418    0.0000 C   0  0  0  0  0  0  0  0  0  0  0  0
    8.5234   -8.7403    0.0000 C   0  0  0  0  0  0  0  0  0  0  0  0
    9.2241   -9.9574    0.0000 N   0  0  0  0  0  0  0  0  0  0  0  0
    7.1094   -8.7462    0.0000 C   0  0  0  0  0  0  0  0  0  0  0  0
    6.4082   -8.3484    0.0000 C   0  0  0  0  0  0  0  0  0  0  0  0
    7.1125   -9.5643    0.0000 C   0  0  0  0  0  0  0  0  0  0  0  0
    5.7050   -9.5649    0.0000 C   0  0  0  0  0  0  0  0  0  0  0  0
    8.5231   -9.5544    0.0000 C   0  0  0  0  0  0  0  0  0  0  0  0
    5.7063   -8.7502    0.0000 C   0  0  0  0  0  0  0  0  0  0  0  0
    6.4101   -9.9713    0.0000 C   0  0  0  0  0  0  0  0  0  0  0  0
    9.9282   -9.5483    0.0000 C   0  0  0  0  0  0  0  0  0  0  0  0
    9.2157   -8.3327    0.0000 N   0  0  0  0  0  0  0  0  0  0  0  0
    9.9219   -8.7316    0.0000 C   0  0  0  0  0  0  0  0  0  0  0  0
    5.0000   -9.9715    0.0000 F   0  0  0  0  0  0  0  0  0  0  0  0
    7.8166   -9.9683    0.0000 F   0  0  0  0  0  0  0  0  0  0  0  0
   10.1413   -5.0391    0.0000 O   0  0  0  0  0  0  0  0  0  0  0  0
   11.1963   -5.0000    0.0000 O   0  0  0  0  0  0  0  0  0  0  0  0
   11.3078   -7.1589    0.0000 C   0  0  0  0  0  0  0  0  0  0  0  0
   11.9976   -7.5811    0.0000 C   0  0  0  0  0  0  0  0  0  0  0  0
   12.7127   -7.1949    0.0000 C   0  0  0  0  0  0  0  0  0  0  0  0
   12.7336   -6.3819    0.0000 C   0  0  0  0  0  0  0  0  0  0  0  0
   12.0394   -5.9550    0.0000 C   0  0  0  0  0  0  0  0  0  0  0  0
   13.4053   -7.6202    0.0000 C   0  0  0  0  0  0  0  0  0  0  0  0
   13.3833   -8.4326    0.0000 C   0  0  0  0  0  0  0  0  0  0  0  0
   14.1199   -7.2330    0.0000 C   0  0  0  0  0  0  0  0  0  0  0  0
 12 20  2  0  0  0  0
 18 16  2  0  0  0  0
 20 22  1  0  0  0  0
 16 23  1  0  0  0  0
 15 24  1  0  0  0  0
 10  3  1  0  0  0  0
  7  1  1  0  0  0  0
  7  8  1  0  0  0  0
  8  9  1  0  0  0  0
  3  4  1  0  0  0  0
  1 25  2  0  0  0  0
  4  5  1  0  0  0  0
  4  9  1  0  0  0  0
  5  6  1  0  0  0  0
  6  7  1  0  0  0  0
  1  2  1  0  0  0  0
 13 10  1  0  0  0  0
 22 21  2  0  0  0  0
 21 11  1  0  0  0  0
 19 15  2  0  0  0  0
 10 11  1  0  0  0  0
  1 26  2  0  0  0  0
  2 27  2  0  0  0  0
 15 13  1  0  0  0  0
 16 19  1  0  0  0  0
 11 17  2  0  0  0  0
 13 14  2  0  0  0  0
  2 31  1  0  0  0  0
 27 28  1  0  0  0  0
 28 29  2  0  0  0  0
 29 30  1  0  0  0  0
 30 31  2  0  0  0  0
 29 32  1  0  0  0  0
 17 12  1  0  0  0  0
 32 33  1  0  0  0  0
 14 18  1  0  0  0  0
 32 34  1  0  0  0  0
M  END
> <Molecule Name>
DNDI1449744

> <CDD Number>
CDD-1535512

> <IC50_uM>
0.21 (n=1)

$$$$

SketchEl molfile

 27 30  0  0  0  0  0  0  0  0999 V2000
   10.7268   -5.8285    0.0000 C   0  0  0  0  0  0  0  0  0  0  0  0
   11.4315   -6.2575    0.0000 C   0  0  0  0  0  0  0  0  0  0  0  0
    7.8550   -7.4520    0.0000 N   0  0  0  0  0  0  0  0  0  0  0  0
    8.5720   -7.0446    0.0000 C   0  0  0  0  0  0  0  0  0  0  0  0
    9.2802   -7.4644    0.0000 C   0  0  0  0  0  0  0  0  0  0  0  0
    9.9951   -7.0604    0.0000 C   0  0  0  0  0  0  0  0  0  0  0  0
   10.0050   -6.2355    0.0000 N   0  0  0  0  0  0  0  0  0  0  0  0
    9.2939   -5.8160    0.0000 C   0  0  0  0  0  0  0  0  0  0  0  0
    8.5728   -6.2216    0.0000 C   0  0  0  0  0  0  0  0  0  0  0  0
    7.8609   -8.2836    0.0000 C   0  0  0  0  0  0  0  0  0  0  0  0
    8.5784   -8.6884    0.0000 C   0  0  0  0  0  0  0  0  0  0  0  0
    9.2901   -9.9245    0.0000 N   0  0  0  0  0  0  0  0  0  0  0  0
    7.1423   -8.6944    0.0000 C   0  0  0  0  0  0  0  0  0  0  0  0
    6.4301   -8.2904    0.0000 C   0  0  0  0  0  0  0  0  0  0  0  0
    7.1455   -9.5253    0.0000 C   0  0  0  0  0  0  0  0  0  0  0  0
    5.7160   -9.5258    0.0000 C   0  0  0  0  0  0  0  0  0  0  0  0
    8.5781   -9.5152    0.0000 C   0  0  0  0  0  0  0  0  0  0  0  0
    5.7173   -8.6984    0.0000 C   0  0  0  0  0  0  0  0  0  0  0  0
    6.4322   -9.9386    0.0000 C   0  0  0  0  0  0  0  0  0  0  0  0
   10.0052   -9.5090    0.0000 C   0  0  0  0  0  0  0  0  0  0  0  0
    9.2816   -8.2744    0.0000 N   0  0  0  0  0  0  0  0  0  0  0  0
    9.9987   -8.6795    0.0000 C   0  0  0  0  0  0  0  0  0  0  0  0
    5.0000   -9.9388    0.0000 F   0  0  0  0  0  0  0  0  0  0  0  0
    7.8605   -9.9356    0.0000 F   0  0  0  0  0  0  0  0  0  0  0  0
   10.7406   -5.0000    0.0000 O   0  0  0  0  0  0  0  0  0  0  0  0
   11.8262   -6.9774    0.0000 C   0  0  0  0  0  0  0  0  0  0  0  0
   12.2552   -6.2727    0.0000 C   0  0  0  0  0  0  0  0  0  0  0  0
 20 22  1  0  0  0  0
 16 23  1  0  0  0  0
 15 24  1  0  0  0  0
 10  3  1  0  0  0  0
  7  1  1  0  0  0  0
  7  8  1  0  0  0  0
  8  9  1  0  0  0  0
  3  4  1  0  0  0  0
  4  5  1  0  0  0  0
  4  9  1  0  0  0  0
  5  6  1  0  0  0  0
  6  7  1  0  0  0  0
  1  2  1  0  0  0  0
 13 10  1  0  0  0  0
 22 21  2  0  0  0  0
 21 11  1  0  0  0  0
 19 15  2  0  0  0  0
 10 11  1  0  0  0  0
 15 13  1  0  0  0  0
 16 19  1  0  0  0  0
 11 17  2  0  0  0  0
 13 14  2  0  0  0  0
 17 12  1  0  0  0  0
 14 18  1  0  0  0  0
  1 25  2  0  0  0  0
 26  2  1  0  0  0  0
 27 26  1  0  0  0  0
  2 27  1  0  0  0  0
 12 20  2  0  0  0  0
 18 16  2  0  0  0  0
M  END
> <Molecule Name>
DNDI1449745

> <CDD Number>
CDD-1535513

> <IC50_uM>
1.38 (n=1)

$$$$

SketchEl molfile

 27 29  0  0  0  0  0  0  0  0999 V2000
   10.6386   -5.9252    0.0000 S   0  0  0  0  0  0  0  0  0  0  0  0
   11.3325   -6.3476    0.0000 C   0  0  0  0  0  0  0  0  0  0  0  0
    7.8110   -7.5237    0.0000 N   0  0  0  0  0  0  0  0  0  0  0  0
    8.5170   -7.1226    0.0000 C   0  0  0  0  0  0  0  0  0  0  0  0
    9.2143   -7.5359    0.0000 C   0  0  0  0  0  0  0  0  0  0  0  0
    9.9182   -7.1382    0.0000 C   0  0  0  0  0  0  0  0  0  0  0  0
    9.9280   -6.3259    0.0000 N   0  0  0  0  0  0  0  0  0  0  0  0
    9.2278   -5.9129    0.0000 C   0  0  0  0  0  0  0  0  0  0  0  0
    8.5177   -6.3122    0.0000 C   0  0  0  0  0  0  0  0  0  0  0  0
    7.8169   -8.3425    0.0000 C   0  0  0  0  0  0  0  0  0  0  0  0
    8.5233   -8.7410    0.0000 C   0  0  0  0  0  0  0  0  0  0  0  0
    9.2240   -9.9581    0.0000 N   0  0  0  0  0  0  0  0  0  0  0  0
    7.1093   -8.7469    0.0000 C   0  0  0  0  0  0  0  0  0  0  0  0
    6.4081   -8.3491    0.0000 C   0  0  0  0  0  0  0  0  0  0  0  0
    7.1124   -9.5650    0.0000 C   0  0  0  0  0  0  0  0  0  0  0  0
    5.7050   -9.5656    0.0000 C   0  0  0  0  0  0  0  0  0  0  0  0
    8.5230   -9.5551    0.0000 C   0  0  0  0  0  0  0  0  0  0  0  0
    5.7063   -8.7509    0.0000 C   0  0  0  0  0  0  0  0  0  0  0  0
    6.4101   -9.9720    0.0000 C   0  0  0  0  0  0  0  0  0  0  0  0
    9.9281   -9.5490    0.0000 C   0  0  0  0  0  0  0  0  0  0  0  0
    9.2156   -8.3334    0.0000 N   0  0  0  0  0  0  0  0  0  0  0  0
    9.9218   -8.7323    0.0000 C   0  0  0  0  0  0  0  0  0  0  0  0
    5.0000   -9.9722    0.0000 F   0  0  0  0  0  0  0  0  0  0  0  0
    7.8165   -9.9690    0.0000 F   0  0  0  0  0  0  0  0  0  0  0  0
   10.2234   -5.0000    0.0000 O   0  0  0  0  0  0  0  0  0  0  0  0
   11.0444   -5.0361    0.0000 O   0  0  0  0  0  0  0  0  0  0  0  0
   12.0452   -5.9579    0.0000 C   0  0  0  0  0  0  0  0  0  0  0  0
 16 23  1  0  0  0  0
 15 24  1  0  0  0  0
 10  3  1  0  0  0  0
  7  1  1  0  0  0  0
  7  8  1  0  0  0  0
  8  9  1  0  0  0  0
  3  4  1  0  0  0  0
  4  5  1  0  0  0  0
  4  9  1  0  0  0  0
  5  6  1  0  0  0  0
  6  7  1  0  0  0  0
  1  2  1  0  0  0  0
 13 10  1  0  0  0  0
 22 21  2  0  0  0  0
 21 11  1  0  0  0  0
 19 15  2  0  0  0  0
 10 11  1  0  0  0  0
 15 13  1  0  0  0  0
 16 19  1  0  0  0  0
 11 17  2  0  0  0  0
 13 14  2  0  0  0  0
 17 12  1  0  0  0  0
 14 18  1  0  0  0  0
  1 25  2  0  0  0  0
 12 20  2  0  0  0  0
 18 16  2  0  0  0  0
  1 26  2  0  0  0  0
 20 22  1  0  0  0  0
  2 27  1  0  0  0  0
M  END
> <Molecule Name>
DNDI1449746

> <CDD Number>
CDD-1535514

> <IC50_uM>
0.62 (n=1)

$$$$

SketchEl molfile

 30 33  0  0  0  0  0  0  0  0999 V2000
   10.7431   -5.7518    0.0000 C   0  0  0  0  0  0  0  0  0  0  0  0
   11.4498   -6.1820    0.0000 C   0  0  0  0  0  0  0  0  0  0  0  0
    7.8631   -7.3800    0.0000 N   0  0  0  0  0  0  0  0  0  0  0  0
    8.5821   -6.9714    0.0000 C   0  0  0  0  0  0  0  0  0  0  0  0
    9.2924   -7.3923    0.0000 C   0  0  0  0  0  0  0  0  0  0  0  0
   10.0093   -6.9872    0.0000 C   0  0  0  0  0  0  0  0  0  0  0  0
   10.0193   -6.1599    0.0000 N   0  0  0  0  0  0  0  0  0  0  0  0
    9.3061   -5.7393    0.0000 C   0  0  0  0  0  0  0  0  0  0  0  0
    8.5829   -6.1460    0.0000 C   0  0  0  0  0  0  0  0  0  0  0  0
    7.8691   -8.2139    0.0000 C   0  0  0  0  0  0  0  0  0  0  0  0
    8.5886   -8.6198    0.0000 C   0  0  0  0  0  0  0  0  0  0  0  0
    9.3023   -9.8594    0.0000 N   0  0  0  0  0  0  0  0  0  0  0  0
    7.1484   -8.6258    0.0000 C   0  0  0  0  0  0  0  0  0  0  0  0
    6.4342   -8.2207    0.0000 C   0  0  0  0  0  0  0  0  0  0  0  0
    7.1516   -9.4591    0.0000 C   0  0  0  0  0  0  0  0  0  0  0  0
    5.7181   -9.4596    0.0000 C   0  0  0  0  0  0  0  0  0  0  0  0
    8.5883   -9.4490    0.0000 C   0  0  0  0  0  0  0  0  0  0  0  0
    5.7193   -8.6299    0.0000 C   0  0  0  0  0  0  0  0  0  0  0  0
    6.4362   -9.8736    0.0000 C   0  0  0  0  0  0  0  0  0  0  0  0
   10.0194   -9.4428    0.0000 C   0  0  0  0  0  0  0  0  0  0  0  0
    9.2938   -8.2046    0.0000 N   0  0  0  0  0  0  0  0  0  0  0  0
   10.0130   -8.6109    0.0000 C   0  0  0  0  0  0  0  0  0  0  0  0
    5.0000   -9.8738    0.0000 F   0  0  0  0  0  0  0  0  0  0  0  0
    7.8687   -9.8706    0.0000 F   0  0  0  0  0  0  0  0  0  0  0  0
   10.7291   -5.0000    0.0000 O   0  0  0  0  0  0  0  0  0  0  0  0
   11.4245   -7.0091    0.0000 C   0  0  0  0  0  0  0  0  0  0  0  0
   12.1271   -7.4392    0.0000 C   0  0  0  0  0  0  0  0  0  0  0  0
   12.8555   -7.0458    0.0000 C   0  0  0  0  0  0  0  0  0  0  0  0
   12.8767   -6.2177    0.0000 C   0  0  0  0  0  0  0  0  0  0  0  0
   12.1697   -5.7830    0.0000 C   0  0  0  0  0  0  0  0  0  0  0  0
  7  8  1  0  0  0  0
  8  9  1  0  0  0  0
  3  4  1  0  0  0  0
  4  5  1  0  0  0  0
  4  9  1  0  0  0  0
  5  6  1  0  0  0  0
  6  7  1  0  0  0  0
  1  2  1  0  0  0  0
 13 10  1  0  0  0  0
 22 21  2  0  0  0  0
 21 11  1  0  0  0  0
 19 15  2  0  0  0  0
 10 11  1  0  0  0  0
 15 13  1  0  0  0  0
 16 19  1  0  0  0  0
 11 17  2  0  0  0  0
 13 14  2  0  0  0  0
 17 12  1  0  0  0  0
 14 18  1  0  0  0  0
  1 25  2  0  0  0  0
 12 20  2  0  0  0  0
 18 16  2  0  0  0  0
 20 22  1  0  0  0  0
  2 26  1  0  0  0  0
 16 23  1  0  0  0  0
 15 24  1  0  0  0  0
 10  3  1  0  0  0  0
  7  1  1  0  0  0  0
  2 30  1  0  0  0  0
 26 27  1  0  0  0  0
 27 28  1  0  0  0  0
 28 29  1  0  0  0  0
 29 30  1  0  0  0  0
M  END
> <Molecule Name>
DNDI1449747

> <CDD Number>
CDD-1535515

> <IC50_uM>
0.57 (n=1)

$$$$

SketchEl molfile

 31 34  0  0  0  0  0  0  0  0999 V2000
   10.6516   -5.9273    0.0000 S   0  0  0  0  0  0  0  0  0  0  0  0
   11.3471   -6.3507    0.0000 C   0  0  0  0  0  0  0  0  0  0  0  0
    7.8175   -7.5296    0.0000 N   0  0  0  0  0  0  0  0  0  0  0  0
    8.5251   -7.1275    0.0000 C   0  0  0  0  0  0  0  0  0  0  0  0
    9.2241   -7.5418    0.0000 C   0  0  0  0  0  0  0  0  0  0  0  0
    9.9295   -7.1431    0.0000 C   0  0  0  0  0  0  0  0  0  0  0  0
    9.9393   -6.3290    0.0000 N   0  0  0  0  0  0  0  0  0  0  0  0
    9.2375   -5.9150    0.0000 C   0  0  0  0  0  0  0  0  0  0  0  0
    8.5259   -6.3153    0.0000 C   0  0  0  0  0  0  0  0  0  0  0  0
    7.8234   -8.3503    0.0000 C   0  0  0  0  0  0  0  0  0  0  0  0
    8.5314   -8.7497    0.0000 C   0  0  0  0  0  0  0  0  0  0  0  0
    9.2337   -9.9696    0.0000 N   0  0  0  0  0  0  0  0  0  0  0  0
    7.1142   -8.7556    0.0000 C   0  0  0  0  0  0  0  0  0  0  0  0
    6.4114   -8.3569    0.0000 C   0  0  0  0  0  0  0  0  0  0  0  0
    7.1173   -9.5756    0.0000 C   0  0  0  0  0  0  0  0  0  0  0  0
    5.7066   -9.5761    0.0000 C   0  0  0  0  0  0  0  0  0  0  0  0
    8.5312   -9.5656    0.0000 C   0  0  0  0  0  0  0  0  0  0  0  0
    5.7079   -8.7596    0.0000 C   0  0  0  0  0  0  0  0  0  0  0  0
    6.4134   -9.9835    0.0000 C   0  0  0  0  0  0  0  0  0  0  0  0
    9.9395   -9.5596    0.0000 C   0  0  0  0  0  0  0  0  0  0  0  0
    9.2254   -8.3411    0.0000 N   0  0  0  0  0  0  0  0  0  0  0  0
    9.9331   -8.7410    0.0000 C   0  0  0  0  0  0  0  0  0  0  0  0
    5.0000   -9.9837    0.0000 F   0  0  0  0  0  0  0  0  0  0  0  0
    7.8230   -9.9805    0.0000 F   0  0  0  0  0  0  0  0  0  0  0  0
   10.2354   -5.0000    0.0000 O   0  0  0  0  0  0  0  0  0  0  0  0
   11.0583   -5.0362    0.0000 O   0  0  0  0  0  0  0  0  0  0  0  0
   11.3259   -7.1649    0.0000 C   0  0  0  0  0  0  0  0  0  0  0  0
   12.0205   -7.5882    0.0000 C   0  0  0  0  0  0  0  0  0  0  0  0
   12.7359   -7.1976    0.0000 C   0  0  0  0  0  0  0  0  0  0  0  0
   12.7523   -6.3793    0.0000 C   0  0  0  0  0  0  0  0  0  0  0  0
   12.0570   -5.9597    0.0000 C   0  0  0  0  0  0  0  0  0  0  0  0
  7  8  1  0  0  0  0
  8  9  1  0  0  0  0
  3  4  1  0  0  0  0
  4  5  1  0  0  0  0
  4  9  1  0  0  0  0
  5  6  1  0  0  0  0
  6  7  1  0  0  0  0
  1  2  1  0  0  0  0
 13 10  1  0  0  0  0
 22 21  2  0  0  0  0
 21 11  1  0  0  0  0
 19 15  2  0  0  0  0
 10 11  1  0  0  0  0
 15 13  1  0  0  0  0
 16 19  1  0  0  0  0
 11 17  2  0  0  0  0
 13 14  2  0  0  0  0
 17 12  1  0  0  0  0
 14 18  1  0  0  0  0
  1 25  2  0  0  0  0
 12 20  2  0  0  0  0
 18 16  2  0  0  0  0
  1 26  2  0  0  0  0
 20 22  1  0  0  0  0
  2 27  2  0  0  0  0
 16 23  1  0  0  0  0
 27 28  1  0  0  0  0
 15 24  1  0  0  0  0
 28 29  2  0  0  0  0
 10  3  1  0  0  0  0
 29 30  1  0  0  0  0
  7  1  1  0  0  0  0
 30 31  2  0  0  0  0
 31  2  1  0  0  0  0
M  END
> <Molecule Name>
DNDI1449748

> <CDD Number>
CDD-1535516

> <IC50_uM>
0.4 (n=1)

$$$$

SketchEl molfile

 34 37  0  0  0  0  0  0  0  0999 V2000
   10.7410   -5.7516    0.0000 C   0  0  0  0  0  0  0  0  0  0  0  0
   11.4475   -6.1817    0.0000 C   0  0  0  0  0  0  0  0  0  0  0  0
    7.8621   -7.3792    0.0000 N   0  0  0  0  0  0  0  0  0  0  0  0
    8.5809   -6.9707    0.0000 C   0  0  0  0  0  0  0  0  0  0  0  0
    9.2909   -7.3915    0.0000 C   0  0  0  0  0  0  0  0  0  0  0  0
   10.0075   -6.9866    0.0000 C   0  0  0  0  0  0  0  0  0  0  0  0
   10.0175   -6.1596    0.0000 N   0  0  0  0  0  0  0  0  0  0  0  0
    9.3045   -5.7391    0.0000 C   0  0  0  0  0  0  0  0  0  0  0  0
    8.5816   -6.1456    0.0000 C   0  0  0  0  0  0  0  0  0  0  0  0
    7.8681   -8.2128    0.0000 C   0  0  0  0  0  0  0  0  0  0  0  0
    8.5873   -8.6186    0.0000 C   0  0  0  0  0  0  0  0  0  0  0  0
    9.3007   -9.8577    0.0000 N   0  0  0  0  0  0  0  0  0  0  0  0
    7.1476   -8.6246    0.0000 C   0  0  0  0  0  0  0  0  0  0  0  0
    6.4337   -8.2196    0.0000 C   0  0  0  0  0  0  0  0  0  0  0  0
    7.1508   -9.4576    0.0000 C   0  0  0  0  0  0  0  0  0  0  0  0
    5.7178   -9.4581    0.0000 C   0  0  0  0  0  0  0  0  0  0  0  0
    8.5870   -9.4474    0.0000 C   0  0  0  0  0  0  0  0  0  0  0  0
    5.7191   -8.6286    0.0000 C   0  0  0  0  0  0  0  0  0  0  0  0
    6.4357   -9.8719    0.0000 C   0  0  0  0  0  0  0  0  0  0  0  0
   10.0176   -9.4413    0.0000 C   0  0  0  0  0  0  0  0  0  0  0  0
    9.2922   -8.2035    0.0000 N   0  0  0  0  0  0  0  0  0  0  0  0
   10.0112   -8.6097    0.0000 C   0  0  0  0  0  0  0  0  0  0  0  0
    5.0000   -9.8721    0.0000 F   0  0  0  0  0  0  0  0  0  0  0  0
    7.8677   -9.8689    0.0000 F   0  0  0  0  0  0  0  0  0  0  0  0
   10.7270   -5.0000    0.0000 O   0  0  0  0  0  0  0  0  0  0  0  0
   11.4222   -7.0084    0.0000 C   0  0  0  0  0  0  0  0  0  0  0  0
   12.1246   -7.4383    0.0000 C   0  0  0  0  0  0  0  0  0  0  0  0
   12.8526   -7.0451    0.0000 C   0  0  0  0  0  0  0  0  0  0  0  0
   12.8739   -6.2174    0.0000 C   0  0  0  0  0  0  0  0  0  0  0  0
   12.1671   -5.7828    0.0000 C   0  0  0  0  0  0  0  0  0  0  0  0
   13.5578   -7.4781    0.0000 C   0  0  0  0  0  0  0  0  0  0  0  0
   13.5354   -8.3052    0.0000 F   0  0  0  0  0  0  0  0  0  0  0  0
   14.2853   -7.0839    0.0000 F   0  0  0  0  0  0  0  0  0  0  0  0
   12.9571   -8.0472    0.0000 F   0  0  0  0  0  0  0  0  0  0  0  0
 28 31  1  0  0  0  0
 31 32  1  0  0  0  0
 31 33  1  0  0  0  0
 31 34  1  0  0  0  0
  6  7  1  0  0  0  0
  1  2  1  0  0  0  0
 13 10  1  0  0  0  0
 22 21  2  0  0  0  0
 21 11  1  0  0  0  0
 19 15  2  0  0  0  0
 10 11  1  0  0  0  0
 15 13  1  0  0  0  0
 16 19  1  0  0  0  0
 11 17  2  0  0  0  0
 13 14  2  0  0  0  0
 17 12  1  0  0  0  0
 14 18  1  0  0  0  0
  1 25  2  0  0  0  0
 12 20  2  0  0  0  0
 18 16  2  0  0  0  0
 20 22  1  0  0  0  0
  2 26  2  0  0  0  0
 16 23  1  0  0  0  0
 15 24  1  0  0  0  0
 10  3  1  0  0  0  0
  7  1  1  0  0  0  0
  2 30  1  0  0  0  0
 26 27  1  0  0  0  0
 27 28  2  0  0  0  0
 28 29  1  0  0  0  0
 29 30  2  0  0  0  0
  7  8  1  0  0  0  0
  8  9  1  0  0  0  0
  3  4  1  0  0  0  0
  4  5  1  0  0  0  0
  4  9  1  0  0  0  0
  5  6  1  0  0  0  0
M  END
> <Molecule Name>
DNDI1449749

> <CDD Number>
CDD-1535517

> <IC50_uM>
0.29 (n=1)

$$$$

SketchEl molfile

 27 29  0  0  0  0  0  0  0  0999 V2000
   10.7455   -5.7522    0.0000 C   0  0  0  0  0  0  0  0  0  0  0  0
   11.4525   -6.1826    0.0000 C   0  0  0  0  0  0  0  0  0  0  0  0
    7.8643   -7.3810    0.0000 N   0  0  0  0  0  0  0  0  0  0  0  0
    8.5836   -6.9723    0.0000 C   0  0  0  0  0  0  0  0  0  0  0  0
    9.2942   -7.3934    0.0000 C   0  0  0  0  0  0  0  0  0  0  0  0
   10.0114   -6.9881    0.0000 C   0  0  0  0  0  0  0  0  0  0  0  0
   10.0214   -6.1605    0.0000 N   0  0  0  0  0  0  0  0  0  0  0  0
    9.3079   -5.7397    0.0000 C   0  0  0  0  0  0  0  0  0  0  0  0
    8.5844   -6.1465    0.0000 C   0  0  0  0  0  0  0  0  0  0  0  0
    7.8703   -8.2153    0.0000 C   0  0  0  0  0  0  0  0  0  0  0  0
    8.5901   -8.6214    0.0000 C   0  0  0  0  0  0  0  0  0  0  0  0
    9.3040   -9.8615    0.0000 N   0  0  0  0  0  0  0  0  0  0  0  0
    7.1493   -8.6274    0.0000 C   0  0  0  0  0  0  0  0  0  0  0  0
    6.4348   -8.2221    0.0000 C   0  0  0  0  0  0  0  0  0  0  0  0
    7.1525   -9.4610    0.0000 C   0  0  0  0  0  0  0  0  0  0  0  0
    5.7184   -9.4616    0.0000 C   0  0  0  0  0  0  0  0  0  0  0  0
    8.5898   -9.4509    0.0000 C   0  0  0  0  0  0  0  0  0  0  0  0
    5.7196   -8.6315    0.0000 C   0  0  0  0  0  0  0  0  0  0  0  0
    6.4368   -9.8757    0.0000 C   0  0  0  0  0  0  0  0  0  0  0  0
   10.0215   -9.4447    0.0000 C   0  0  0  0  0  0  0  0  0  0  0  0
    9.2955   -8.2061    0.0000 N   0  0  0  0  0  0  0  0  0  0  0  0
   10.0151   -8.6125    0.0000 C   0  0  0  0  0  0  0  0  0  0  0  0
    5.0000   -9.8759    0.0000 F   0  0  0  0  0  0  0  0  0  0  0  0
    7.8699   -9.8726    0.0000 F   0  0  0  0  0  0  0  0  0  0  0  0
   10.7315   -5.0000    0.0000 O   0  0  0  0  0  0  0  0  0  0  0  0
   11.4272   -7.0100    0.0000 C   0  0  0  0  0  0  0  0  0  0  0  0
   12.1726   -5.7834    0.0000 C   0  0  0  0  0  0  0  0  0  0  0  0
  6  7  1  0  0  0  0
  1  2  1  0  0  0  0
 13 10  1  0  0  0  0
 22 21  2  0  0  0  0
 21 11  1  0  0  0  0
 19 15  2  0  0  0  0
 10 11  1  0  0  0  0
 15 13  1  0  0  0  0
 16 19  1  0  0  0  0
 11 17  2  0  0  0  0
 13 14  2  0  0  0  0
 17 12  1  0  0  0  0
 14 18  1  0  0  0  0
  1 25  2  0  0  0  0
 12 20  2  0  0  0  0
 18 16  2  0  0  0  0
 20 22  1  0  0  0  0
  2 26  1  0  0  0  0
 16 23  1  0  0  0  0
 15 24  1  0  0  0  0
 10  3  1  0  0  0  0
  7  1  1  0  0  0  0
  2 27  1  0  0  0  0
  7  8  1  0  0  0  0
  8  9  1  0  0  0  0
  3  4  1  0  0  0  0
  4  5  1  0  0  0  0
  4  9  1  0  0  0  0
  5  6  1  0  0  0  0
M  END
> <Molecule Name>
DNDI1449750

> <CDD Number>
CDD-1535518

> <IC50_uM>
0.85 (n=1)

$$$$

SketchEl molfile

 30 33  0  0  0  0  0  0  0  0999 V2000
   10.7425   -5.7518    0.0000 C   0  0  0  0  0  0  0  0  0  0  0  0
   11.4492   -6.1820    0.0000 C   0  0  0  0  0  0  0  0  0  0  0  0
    7.8628   -7.3798    0.0000 N   0  0  0  0  0  0  0  0  0  0  0  0
    8.5818   -6.9713    0.0000 C   0  0  0  0  0  0  0  0  0  0  0  0
    9.2920   -7.3922    0.0000 C   0  0  0  0  0  0  0  0  0  0  0  0
   10.0088   -6.9871    0.0000 C   0  0  0  0  0  0  0  0  0  0  0  0
   10.0188   -6.1599    0.0000 N   0  0  0  0  0  0  0  0  0  0  0  0
    9.3057   -5.7393    0.0000 C   0  0  0  0  0  0  0  0  0  0  0  0
    8.5826   -6.1459    0.0000 C   0  0  0  0  0  0  0  0  0  0  0  0
    7.8688   -8.2137    0.0000 C   0  0  0  0  0  0  0  0  0  0  0  0
    8.5883   -8.6195    0.0000 C   0  0  0  0  0  0  0  0  0  0  0  0
    9.3018   -9.8590    0.0000 N   0  0  0  0  0  0  0  0  0  0  0  0
    7.1482   -8.6255    0.0000 C   0  0  0  0  0  0  0  0  0  0  0  0
    6.4341   -8.2204    0.0000 C   0  0  0  0  0  0  0  0  0  0  0  0
    7.1514   -9.4587    0.0000 C   0  0  0  0  0  0  0  0  0  0  0  0
    5.7180   -9.4593    0.0000 C   0  0  0  0  0  0  0  0  0  0  0  0
    8.5880   -9.4486    0.0000 C   0  0  0  0  0  0  0  0  0  0  0  0
    5.7193   -8.6296    0.0000 C   0  0  0  0  0  0  0  0  0  0  0  0
    6.4361   -9.8732    0.0000 C   0  0  0  0  0  0  0  0  0  0  0  0
   10.0189   -9.4424    0.0000 C   0  0  0  0  0  0  0  0  0  0  0  0
    9.2933   -8.2044    0.0000 N   0  0  0  0  0  0  0  0  0  0  0  0
   10.0125   -8.6107    0.0000 C   0  0  0  0  0  0  0  0  0  0  0  0
    5.0000   -9.8734    0.0000 F   0  0  0  0  0  0  0  0  0  0  0  0
    7.8684   -9.8702    0.0000 F   0  0  0  0  0  0  0  0  0  0  0  0
   10.7285   -5.0000    0.0000 O   0  0  0  0  0  0  0  0  0  0  0  0
   11.4276   -7.0093    0.0000 C   0  0  0  0  0  0  0  0  0  0  0  0
   12.1334   -7.4394    0.0000 C   0  0  0  0  0  0  0  0  0  0  0  0
   12.8603   -7.0425    0.0000 C   0  0  0  0  0  0  0  0  0  0  0  0
   12.8770   -6.2111    0.0000 C   0  0  0  0  0  0  0  0  0  0  0  0
   12.1705   -5.7847    0.0000 C   0  0  0  0  0  0  0  0  0  0  0  0
 21 11  1  0  0  0  0
 19 15  2  0  0  0  0
 10 11  1  0  0  0  0
 15 13  1  0  0  0  0
 16 19  1  0  0  0  0
 11 17  2  0  0  0  0
 13 14  2  0  0  0  0
 17 12  1  0  0  0  0
 14 18  1  0  0  0  0
  1 25  2  0  0  0  0
 12 20  2  0  0  0  0
 18 16  2  0  0  0  0
 20 22  1  0  0  0  0
 16 23  1  0  0  0  0
 15 24  1  0  0  0  0
 10  3  1  0  0  0  0
  7  1  1  0  0  0  0
  7  8  1  0  0  0  0
  8  9  1  0  0  0  0
  3  4  1  0  0  0  0
  4  5  1  0  0  0  0
  4  9  1  0  0  0  0
  5  6  1  0  0  0  0
  2 26  2  0  0  0  0
  6  7  1  0  0  0  0
 26 27  1  0  0  0  0
  1  2  1  0  0  0  0
 27 28  2  0  0  0  0
 13 10  1  0  0  0  0
 28 29  1  0  0  0  0
 22 21  2  0  0  0  0
 29 30  2  0  0  0  0
 30  2  1  0  0  0  0
M  END
> <Molecule Name>
DNDI1449751

> <CDD Number>
CDD-1535519

> <IC50_uM>
0.68 (n=1)

$$$$

SketchEl molfile

 28 30  0  0  0  0  0  0  0  0999 V2000
   10.7457   -5.7926    0.0000 C   0  0  0  0  0  0  0  0  0  0  0  0
   11.4527   -6.2231    0.0000 C   0  0  0  0  0  0  0  0  0  0  0  0
    7.8644   -7.4215    0.0000 N   0  0  0  0  0  0  0  0  0  0  0  0
    8.5838   -7.0128    0.0000 C   0  0  0  0  0  0  0  0  0  0  0  0
    9.2944   -7.4339    0.0000 C   0  0  0  0  0  0  0  0  0  0  0  0
   10.0116   -7.0286    0.0000 C   0  0  0  0  0  0  0  0  0  0  0  0
   10.0216   -6.2009    0.0000 N   0  0  0  0  0  0  0  0  0  0  0  0
    9.3081   -5.7801    0.0000 C   0  0  0  0  0  0  0  0  0  0  0  0
    8.5846   -6.1870    0.0000 C   0  0  0  0  0  0  0  0  0  0  0  0
    7.8704   -8.2559    0.0000 C   0  0  0  0  0  0  0  0  0  0  0  0
    8.5903   -8.6620    0.0000 C   0  0  0  0  0  0  0  0  0  0  0  0
    9.3042   -9.9021    0.0000 N   0  0  0  0  0  0  0  0  0  0  0  0
    7.1494   -8.6680    0.0000 C   0  0  0  0  0  0  0  0  0  0  0  0
    6.4349   -8.2626    0.0000 C   0  0  0  0  0  0  0  0  0  0  0  0
    7.1526   -9.5016    0.0000 C   0  0  0  0  0  0  0  0  0  0  0  0
    5.7184   -9.5021    0.0000 C   0  0  0  0  0  0  0  0  0  0  0  0
    8.5900   -9.4915    0.0000 C   0  0  0  0  0  0  0  0  0  0  0  0
    5.7197   -8.6720    0.0000 C   0  0  0  0  0  0  0  0  0  0  0  0
    6.4369   -9.9163    0.0000 C   0  0  0  0  0  0  0  0  0  0  0  0
   10.0217   -9.4853    0.0000 C   0  0  0  0  0  0  0  0  0  0  0  0
    9.2957   -8.2466    0.0000 N   0  0  0  0  0  0  0  0  0  0  0  0
   10.0153   -8.6531    0.0000 C   0  0  0  0  0  0  0  0  0  0  0  0
    5.0000   -9.9165    0.0000 F   0  0  0  0  0  0  0  0  0  0  0  0
    7.8700   -9.9132    0.0000 F   0  0  0  0  0  0  0  0  0  0  0  0
   10.7317   -5.0404    0.0000 O   0  0  0  0  0  0  0  0  0  0  0  0
   12.8814   -6.2521    0.0000 C   0  0  0  0  0  0  0  0  0  0  0  0
   12.1745   -5.8255    0.0000 C   0  0  0  0  0  0  0  0  0  0  0  0
   12.1908   -5.0000    0.0000 C   0  0  0  0  0  0  0  0  0  0  0  0
 21 11  1  0  0  0  0
 19 15  2  0  0  0  0
 10 11  1  0  0  0  0
 15 13  1  0  0  0  0
 16 19  1  0  0  0  0
 11 17  2  0  0  0  0
 13 14  2  0  0  0  0
 17 12  1  0  0  0  0
 14 18  1  0  0  0  0
  1 25  2  0  0  0  0
 12 20  2  0  0  0  0
 18 16  2  0  0  0  0
 20 22  1  0  0  0  0
 16 23  1  0  0  0  0
 15 24  1  0  0  0  0
 10  3  1  0  0  0  0
  7  1  1  0  0  0  0
  7  8  1  0  0  0  0
  8  9  1  0  0  0  0
  3  4  1  0  0  0  0
  4  5  1  0  0  0  0
  4  9  1  0  0  0  0
  5  6  1  0  0  0  0
  6  7  1  0  0  0  0
  1  2  1  0  0  0  0
 13 10  1  0  0  0  0
 22 21  2  0  0  0  0
 26 27  1  0  0  0  0
 27  2  1  0  0  0  0
 27 28  1  0  0  0  0
M  END
> <Molecule Name>
DNDI1449752

> <CDD Number>
CDD-1535520

> <IC50_uM>
0.55 (n=1)

$$$$

SketchEl molfile

 29 32  0  0  0  0  0  0  0  0999 V2000
    7.1382   -9.1356    0.0000 C   0  0  0  0  0  0  0  0  0  0  0  0
    7.8569   -8.7248    0.0000 C   0  0  0  0  0  0  0  0  0  0  0  0
    7.8890   -6.2503    0.0000 N   0  0  0  0  0  0  0  0  0  0  0  0
    7.8673   -7.8999    0.0000 N   0  0  0  0  0  0  0  0  0  0  0  0
    7.1413   -9.9667    0.0000 C   0  0  0  0  0  0  0  0  0  0  0  0
    8.5746   -9.1296    0.0000 C   0  0  0  0  0  0  0  0  0  0  0  0
    6.4259   -8.7315    0.0000 C   0  0  0  0  0  0  0  0  0  0  0  0
    6.4279  -10.3801    0.0000 C   0  0  0  0  0  0  0  0  0  0  0  0
    9.9951   -9.1208    0.0000 C   0  0  0  0  0  0  0  0  0  0  0  0
    9.2863  -10.3660    0.0000 N   0  0  0  0  0  0  0  0  0  0  0  0
    7.1659   -6.6570    0.0000 C   0  0  0  0  0  0  0  0  0  0  0  0
    8.5929   -6.6807    0.0000 C   0  0  0  0  0  0  0  0  0  0  0  0
    7.1514   -7.4847    0.0000 C   0  0  0  0  0  0  0  0  0  0  0  0
    8.5896   -7.5015    0.0000 C   0  0  0  0  0  0  0  0  0  0  0  0
   10.0016   -9.9504    0.0000 C   0  0  0  0  0  0  0  0  0  0  0  0
    5.7116   -9.9672    0.0000 C   0  0  0  0  0  0  0  0  0  0  0  0
    5.0000  -10.3791    0.0000 Cl  0  0  0  0  0  0  0  0  0  0  0  0
    5.7129   -9.1397    0.0000 C   0  0  0  0  0  0  0  0  0  0  0  0
    8.5743   -9.9566    0.0000 C   0  0  0  0  0  0  0  0  0  0  0  0
    9.2778   -8.7156    0.0000 C   0  0  0  0  0  0  0  0  0  0  0  0
    7.9040   -5.4254    0.0000 C   0  0  0  0  0  0  0  0  0  0  0  0
    7.1971   -5.0000    0.0000 O   0  0  0  0  0  0  0  0  0  0  0  0
    8.6259   -5.0260    0.0000 O   0  0  0  0  0  0  0  0  0  0  0  0
    9.3328   -5.4515    0.0000 C   0  0  0  0  0  0  0  0  0  0  0  0
    9.3160   -6.2768    0.0000 C   0  0  0  0  0  0  0  0  0  0  0  0
   10.0221   -6.7021    0.0000 C   0  0  0  0  0  0  0  0  0  0  0  0
   10.7450   -6.3026    0.0000 C   0  0  0  0  0  0  0  0  0  0  0  0
   10.7574   -5.4734    0.0000 C   0  0  0  0  0  0  0  0  0  0  0  0
   10.0507   -5.0518    0.0000 C   0  0  0  0  0  0  0  0  0  0  0  0
  3 11  1  0  0  0  0
 11 13  1  0  0  0  0
 20  6  1  0  0  0  0
  3 21  1  0  0  0  0
  8  5  2  0  0  0  0
  2  6  1  0  0  0  0
 21 22  2  0  0  0  0
  5  1  1  0  0  0  0
 16  8  1  0  0  0  0
  6 19  2  0  0  0  0
  1  7  2  0  0  0  0
 19 10  1  0  0  0  0
  7 18  1  0  0  0  0
 10 15  2  0  0  0  0
 18 16  2  0  0  0  0
 15  9  1  0  0  0  0
  4 14  1  0  0  0  0
  4  2  1  0  0  0  0
 21 23  1  0  0  0  0
  1  2  1  0  0  0  0
 23 24  1  0  0  0  0
 16 17  1  0  0  0  0
 24 25  2  0  0  0  0
  9 20  2  0  0  0  0
 25 26  1  0  0  0  0
  4 13  1  0  0  0  0
 26 27  2  0  0  0  0
 14 12  1  0  0  0  0
 27 28  1  0  0  0  0
 12  3  1  0  0  0  0
 28 29  2  0  0  0  0
 29 24  1  0  0  0  0
M  END
> <Molecule Name>
DNDI1449753

> <CDD Number>
CDD-1535521

> <IC50_uM>
0.008 (n=1)

$$$$

SketchEl molfile

 32 35  0  0  0  0  0  0  0  0999 V2000
    7.1379   -9.1352    0.0000 C   0  0  0  0  0  0  0  0  0  0  0  0
    7.8567   -8.7245    0.0000 C   0  0  0  0  0  0  0  0  0  0  0  0
    7.8887   -6.2502    0.0000 N   0  0  0  0  0  0  0  0  0  0  0  0
    7.8671   -7.8997    0.0000 N   0  0  0  0  0  0  0  0  0  0  0  0
    7.1411   -9.9662    0.0000 C   0  0  0  0  0  0  0  0  0  0  0  0
    8.5742   -9.1293    0.0000 C   0  0  0  0  0  0  0  0  0  0  0  0
    6.4257   -8.7312    0.0000 C   0  0  0  0  0  0  0  0  0  0  0  0
    6.4277  -10.3796    0.0000 C   0  0  0  0  0  0  0  0  0  0  0  0
    9.9947   -9.1204    0.0000 N   0  0  0  0  0  0  0  0  0  0  0  0
    9.2859  -10.3655    0.0000 N   0  0  0  0  0  0  0  0  0  0  0  0
    7.1657   -6.6569    0.0000 C   0  0  0  0  0  0  0  0  0  0  0  0
    8.5925   -6.6805    0.0000 C   0  0  0  0  0  0  0  0  0  0  0  0
    7.1512   -7.4845    0.0000 C   0  0  0  0  0  0  0  0  0  0  0  0
    8.5892   -7.5013    0.0000 C   0  0  0  0  0  0  0  0  0  0  0  0
   10.0011   -9.9500    0.0000 C   0  0  0  0  0  0  0  0  0  0  0  0
    5.7115   -9.9668    0.0000 C   0  0  0  0  0  0  0  0  0  0  0  0
    5.0000  -10.3786    0.0000 Cl  0  0  0  0  0  0  0  0  0  0  0  0
    5.7128   -9.1393    0.0000 C   0  0  0  0  0  0  0  0  0  0  0  0
    8.5739   -9.9561    0.0000 C   0  0  0  0  0  0  0  0  0  0  0  0
    9.2774   -8.7152    0.0000 C   0  0  0  0  0  0  0  0  0  0  0  0
    7.9037   -5.4254    0.0000 C   0  0  0  0  0  0  0  0  0  0  0  0
    7.1969   -5.0000    0.0000 O   0  0  0  0  0  0  0  0  0  0  0  0
    8.6255   -5.0260    0.0000 N   0  0  0  0  0  0  0  0  0  0  0  0
    9.3323   -5.4514    0.0000 C   0  0  0  0  0  0  0  0  0  0  0  0
    9.3156   -6.2767    0.0000 C   0  0  0  0  0  0  0  0  0  0  0  0
   10.0216   -6.7020    0.0000 C   0  0  0  0  0  0  0  0  0  0  0  0
   10.7444   -6.3025    0.0000 C   0  0  0  0  0  0  0  0  0  0  0  0
   10.7568   -5.4734    0.0000 C   0  0  0  0  0  0  0  0  0  0  0  0
   10.0502   -5.0518    0.0000 C   0  0  0  0  0  0  0  0  0  0  0  0
   11.4525   -6.7275    0.0000 C   0  0  0  0  0  0  0  0  0  0  0  0
   11.4386   -7.5532    0.0000 C   0  0  0  0  0  0  0  0  0  0  0  0
   12.1746   -6.3267    0.0000 C   0  0  0  0  0  0  0  0  0  0  0  0
 20  6  1  0  0  0  0
  3 21  1  0  0  0  0
  8  5  2  0  0  0  0
  2  6  1  0  0  0  0
 21 22  2  0  0  0  0
  5  1  1  0  0  0  0
 16  8  1  0  0  0  0
  6 19  2  0  0  0  0
  1  7  2  0  0  0  0
 19 10  1  0  0  0  0
  7 18  1  0  0  0  0
 10 15  2  0  0  0  0
 18 16  2  0  0  0  0
 15  9  1  0  0  0  0
  4 14  1  0  0  0  0
  4  2  1  0  0  0  0
 21 23  1  0  0  0  0
  1  2  1  0  0  0  0
 23 24  1  0  0  0  0
 16 17  1  0  0  0  0
 24 25  2  0  0  0  0
  9 20  2  0  0  0  0
 25 26  1  0  0  0  0
  4 13  1  0  0  0  0
 26 27  2  0  0  0  0
 14 12  1  0  0  0  0
 27 28  1  0  0  0  0
 12  3  1  0  0  0  0
 28 29  2  0  0  0  0
 29 24  1  0  0  0  0
 27 30  1  0  0  0  0
  3 11  1  0  0  0  0
 30 31  1  0  0  0  0
 11 13  1  0  0  0  0
 30 32  1  0  0  0  0
M  END
> <Molecule Name>
DNDI1449754

> <CDD Number>
CDD-1535522

> <IC50_uM>
0.011 (n=1)

$$$$

SketchEl molfile

 30 33  0  0  0  0  0  0  0  0999 V2000
    7.1381   -9.1355    0.0000 C   0  0  0  0  0  0  0  0  0  0  0  0
    7.8568   -8.7247    0.0000 C   0  0  0  0  0  0  0  0  0  0  0  0
    7.8889   -6.2503    0.0000 N   0  0  0  0  0  0  0  0  0  0  0  0
    7.8673   -7.8998    0.0000 N   0  0  0  0  0  0  0  0  0  0  0  0
    7.1413   -9.9665    0.0000 C   0  0  0  0  0  0  0  0  0  0  0  0
    8.5744   -9.1295    0.0000 C   0  0  0  0  0  0  0  0  0  0  0  0
    6.4258   -8.7314    0.0000 C   0  0  0  0  0  0  0  0  0  0  0  0
    6.4278  -10.3799    0.0000 C   0  0  0  0  0  0  0  0  0  0  0  0
    9.9950   -9.1206    0.0000 N   0  0  0  0  0  0  0  0  0  0  0  0
    9.2862  -10.3658    0.0000 N   0  0  0  0  0  0  0  0  0  0  0  0
    7.1658   -6.6569    0.0000 C   0  0  0  0  0  0  0  0  0  0  0  0
    8.5928   -6.6806    0.0000 C   0  0  0  0  0  0  0  0  0  0  0  0
    7.1513   -7.4846    0.0000 C   0  0  0  0  0  0  0  0  0  0  0  0
    8.5895   -7.5014    0.0000 C   0  0  0  0  0  0  0  0  0  0  0  0
   10.0014   -9.9503    0.0000 C   0  0  0  0  0  0  0  0  0  0  0  0
    5.7116   -9.9670    0.0000 C   0  0  0  0  0  0  0  0  0  0  0  0
    5.0000  -10.3789    0.0000 Cl  0  0  0  0  0  0  0  0  0  0  0  0
    5.7129   -9.1395    0.0000 C   0  0  0  0  0  0  0  0  0  0  0  0
    8.5742   -9.9564    0.0000 C   0  0  0  0  0  0  0  0  0  0  0  0
    9.2777   -8.7154    0.0000 C   0  0  0  0  0  0  0  0  0  0  0  0
    7.9039   -5.4254    0.0000 C   0  0  0  0  0  0  0  0  0  0  0  0
    7.1970   -5.0000    0.0000 O   0  0  0  0  0  0  0  0  0  0  0  0
    8.6258   -5.0260    0.0000 N   0  0  0  0  0  0  0  0  0  0  0  0
    9.3326   -5.4514    0.0000 C   0  0  0  0  0  0  0  0  0  0  0  0
    9.3159   -6.2767    0.0000 C   0  0  0  0  0  0  0  0  0  0  0  0
   10.0219   -6.7021    0.0000 C   0  0  0  0  0  0  0  0  0  0  0  0
   10.7448   -6.3026    0.0000 C   0  0  0  0  0  0  0  0  0  0  0  0
   10.7572   -5.4734    0.0000 C   0  0  0  0  0  0  0  0  0  0  0  0
   10.0505   -5.0518    0.0000 C   0  0  0  0  0  0  0  0  0  0  0  0
   11.4529   -6.7275    0.0000 Cl  0  0  0  0  0  0  0  0  0  0  0  0
 20  6  1  0  0  0  0
  3 21  1  0  0  0  0
  8  5  2  0  0  0  0
  2  6  1  0  0  0  0
 21 22  2  0  0  0  0
  5  1  1  0  0  0  0
 16  8  1  0  0  0  0
  6 19  2  0  0  0  0
  1  7  2  0  0  0  0
 19 10  1  0  0  0  0
  7 18  1  0  0  0  0
 10 15  2  0  0  0  0
 18 16  2  0  0  0  0
 15  9  1  0  0  0  0
  4 14  1  0  0  0  0
  4  2  1  0  0  0  0
 21 23  1  0  0  0  0
  1  2  1  0  0  0  0
 23 24  1  0  0  0  0
 16 17  1  0  0  0  0
 24 25  2  0  0  0  0
  9 20  2  0  0  0  0
 25 26  1  0  0  0  0
  4 13  1  0  0  0  0
 26 27  2  0  0  0  0
 14 12  1  0  0  0  0
 27 28  1  0  0  0  0
 12  3  1  0  0  0  0
 28 29  2  0  0  0  0
 29 24  1  0  0  0  0
 27 30  1  0  0  0  0
  3 11  1  0  0  0  0
 11 13  1  0  0  0  0
M  END
> <Molecule Name>
DNDI1449755

> <CDD Number>
CDD-1535523

> <IC50_uM>
0.022 (n=1)

$$$$

SketchEl molfile

 27 29  0  0  0  0  0  0  0  0999 V2000
    7.1384   -9.1361    0.0000 C   0  0  0  0  0  0  0  0  0  0  0  0
    7.8572   -8.7252    0.0000 C   0  0  0  0  0  0  0  0  0  0  0  0
    7.8893   -6.2505    0.0000 N   0  0  0  0  0  0  0  0  0  0  0  0
    7.8676   -7.9003    0.0000 N   0  0  0  0  0  0  0  0  0  0  0  0
    7.1415   -9.9673    0.0000 C   0  0  0  0  0  0  0  0  0  0  0  0
    8.5749   -9.1301    0.0000 C   0  0  0  0  0  0  0  0  0  0  0  0
    6.4260   -8.7320    0.0000 C   0  0  0  0  0  0  0  0  0  0  0  0
    6.4280  -10.3807    0.0000 C   0  0  0  0  0  0  0  0  0  0  0  0
    9.9956   -9.1213    0.0000 N   0  0  0  0  0  0  0  0  0  0  0  0
    9.2867  -10.3666    0.0000 N   0  0  0  0  0  0  0  0  0  0  0  0
    7.1661   -6.6572    0.0000 C   0  0  0  0  0  0  0  0  0  0  0  0
    8.5932   -6.6809    0.0000 C   0  0  0  0  0  0  0  0  0  0  0  0
    7.1516   -7.4850    0.0000 C   0  0  0  0  0  0  0  0  0  0  0  0
    8.5899   -7.5018    0.0000 C   0  0  0  0  0  0  0  0  0  0  0  0
   10.0021   -9.9510    0.0000 C   0  0  0  0  0  0  0  0  0  0  0  0
    5.7117   -9.9678    0.0000 C   0  0  0  0  0  0  0  0  0  0  0  0
    5.0000  -10.3797    0.0000 Cl  0  0  0  0  0  0  0  0  0  0  0  0
    5.7130   -9.1401    0.0000 C   0  0  0  0  0  0  0  0  0  0  0  0
    8.5746   -9.9571    0.0000 C   0  0  0  0  0  0  0  0  0  0  0  0
    9.2783   -8.7160    0.0000 C   0  0  0  0  0  0  0  0  0  0  0  0
    7.9043   -5.4255    0.0000 C   0  0  0  0  0  0  0  0  0  0  0  0
    7.1973   -5.0000    0.0000 O   0  0  0  0  0  0  0  0  0  0  0  0
    8.6262   -5.0261    0.0000 N   0  0  0  0  0  0  0  0  0  0  0  0
    9.3332   -5.4516    0.0000 C   0  0  0  0  0  0  0  0  0  0  0  0
    9.3165   -6.2769    0.0000 C   0  0  0  0  0  0  0  0  0  0  0  0
   10.0512   -5.0519    0.0000 C   0  0  0  0  0  0  0  0  0  0  0  0
   10.1262   -5.6794    0.0000 C   0  0  0  0  0  0  0  0  0  0  0  0
 20  6  1  0  0  0  0
  3 21  1  0  0  0  0
  8  5  2  0  0  0  0
  2  6  1  0  0  0  0
 21 22  2  0  0  0  0
  5  1  1  0  0  0  0
 16  8  1  0  0  0  0
  6 19  2  0  0  0  0
  1  7  2  0  0  0  0
 19 10  1  0  0  0  0
  7 18  1  0  0  0  0
 10 15  2  0  0  0  0
 18 16  2  0  0  0  0
 15  9  1  0  0  0  0
  4 14  1  0  0  0  0
  4  2  1  0  0  0  0
 21 23  1  0  0  0  0
  1  2  1  0  0  0  0
 23 24  1  0  0  0  0
 16 17  1  0  0  0  0
 24 25  1  0  0  0  0
  9 20  2  0  0  0  0
  4 13  1  0  0  0  0
 14 12  1  0  0  0  0
 12  3  1  0  0  0  0
 26 24  1  0  0  0  0
  3 11  1  0  0  0  0
 11 13  1  0  0  0  0
 24 27  1  0  0  0  0
M  END
> <Molecule Name>
DNDI1449756

> <CDD Number>
CDD-1535524

> <IC50_uM>
0.23 (n=1)

$$$$

SketchEl molfile

 31 34  0  0  0  0  0  0  0  0999 V2000
    7.1329   -8.6666    0.0000 C   0  0  0  0  0  0  0  0  0  0  0  0
    7.8499   -8.2568    0.0000 C   0  0  0  0  0  0  0  0  0  0  0  0
    7.8818   -5.7885    0.0000 C   0  0  0  0  0  0  0  0  0  0  0  0
    7.8602   -7.4340    0.0000 C   0  0  0  0  0  0  0  0  0  0  0  0
    7.1360   -9.4956    0.0000 C   0  0  0  0  0  0  0  0  0  0  0  0
    8.5657   -8.6606    0.0000 C   0  0  0  0  0  0  0  0  0  0  0  0
    6.4223   -8.2635    0.0000 C   0  0  0  0  0  0  0  0  0  0  0  0
    6.4243   -9.9080    0.0000 C   0  0  0  0  0  0  0  0  0  0  0  0
    9.9828   -8.6518    0.0000 C   0  0  0  0  0  0  0  0  0  0  0  0
    9.2757   -9.8939    0.0000 N   0  0  0  0  0  0  0  0  0  0  0  0
    7.1605   -6.1941    0.0000 C   0  0  0  0  0  0  0  0  0  0  0  0
    8.5840   -6.2178    0.0000 C   0  0  0  0  0  0  0  0  0  0  0  0
    7.1461   -7.0198    0.0000 C   0  0  0  0  0  0  0  0  0  0  0  0
    8.5807   -7.0365    0.0000 C   0  0  0  0  0  0  0  0  0  0  0  0
    9.9892   -9.4794    0.0000 C   0  0  0  0  0  0  0  0  0  0  0  0
    5.7099   -9.4961    0.0000 C   0  0  0  0  0  0  0  0  0  0  0  0
    5.0000   -9.9070    0.0000 Cl  0  0  0  0  0  0  0  0  0  0  0  0
    5.7111   -8.6706    0.0000 C   0  0  0  0  0  0  0  0  0  0  0  0
    8.5654   -9.4855    0.0000 C   0  0  0  0  0  0  0  0  0  0  0  0
    9.2672   -8.2476    0.0000 C   0  0  0  0  0  0  0  0  0  0  0  0
    8.6666   -7.7877    0.0000 O   0  0  0  0  0  0  0  0  0  0  0  0
    9.2990   -5.8187    0.0000 C   0  0  0  0  0  0  0  0  0  0  0  0
   10.0020   -6.2384    0.0000 N   0  0  0  0  0  0  0  0  0  0  0  0
    9.3109   -5.0000    0.0000 O   0  0  0  0  0  0  0  0  0  0  0  0
   10.7170   -5.8394    0.0000 C   0  0  0  0  0  0  0  0  0  0  0  0
   11.4201   -6.2591    0.0000 C   0  0  0  0  0  0  0  0  0  0  0  0
   11.4030   -7.0774    0.0000 C   0  0  0  0  0  0  0  0  0  0  0  0
   12.1052   -7.4970    0.0000 C   0  0  0  0  0  0  0  0  0  0  0  0
   12.8212   -7.0979    0.0000 C   0  0  0  0  0  0  0  0  0  0  0  0
   12.8306   -6.2749    0.0000 C   0  0  0  0  0  0  0  0  0  0  0  0
   12.1277   -5.8590    0.0000 C   0  0  0  0  0  0  0  0  0  0  0  0
 18 16  2  0  0  0  0
 15  9  1  0  0  0  0
  4 14  2  0  0  0  0
  4  2  1  0  0  0  0
  1  2  1  0  0  0  0
 16 17  1  0  0  0  0
  9 20  2  0  0  0  0
  4 13  1  0  0  0  0
 14 12  1  0  0  0  0
 12  3  2  0  0  0  0
  3 11  1  0  0  0  0
 11 13  2  0  0  0  0
  2 21  1  0  0  0  0
 20  6  1  0  0  0  0
 12 22  1  0  0  0  0
  8  5  2  0  0  0  0
 22 23  1  0  0  0  0
  2  6  1  0  0  0  0
 22 24  2  0  0  0  0
  5  1  1  0  0  0  0
 23 25  1  0  0  0  0
 16  8  1  0  0  0  0
 25 26  1  0  0  0  0
  6 19  2  0  0  0  0
 26 27  1  0  0  0  0
  1  7  2  0  0  0  0
 27 28  1  0  0  0  0
 19 10  1  0  0  0  0
 28 29  1  0  0  0  0
  7 18  1  0  0  0  0
 29 30  1  0  0  0  0
 10 15  2  0  0  0  0
 30 31  1  0  0  0  0
 31 26  1  0  0  0  0
M  END
> <Molecule Name>
DNDI1449757

> <CDD Number>
CDD-1535525

> <IC50_uM>
0.1 (n=1)

$$$$

SketchEl molfile

 25 27  0  0  0  0  0  0  0  0999 V2000
    7.1384   -9.1362    0.0000 C   0  0  0  0  0  0  0  0  0  0  0  0
    7.8573   -8.7253    0.0000 C   0  0  0  0  0  0  0  0  0  0  0  0
    7.8893   -6.2505    0.0000 N   0  0  0  0  0  0  0  0  0  0  0  0
    7.8677   -7.9003    0.0000 N   0  0  0  0  0  0  0  0  0  0  0  0
    7.1416   -9.9673    0.0000 C   0  0  0  0  0  0  0  0  0  0  0  0
    8.5750   -9.1302    0.0000 C   0  0  0  0  0  0  0  0  0  0  0  0
    6.4261   -8.7320    0.0000 C   0  0  0  0  0  0  0  0  0  0  0  0
    6.4281  -10.3808    0.0000 C   0  0  0  0  0  0  0  0  0  0  0  0
    9.9958   -9.1213    0.0000 N   0  0  0  0  0  0  0  0  0  0  0  0
    9.2869  -10.3667    0.0000 N   0  0  0  0  0  0  0  0  0  0  0  0
    7.1662   -6.6572    0.0000 C   0  0  0  0  0  0  0  0  0  0  0  0
    8.5933   -6.6809    0.0000 C   0  0  0  0  0  0  0  0  0  0  0  0
    7.1517   -7.4851    0.0000 C   0  0  0  0  0  0  0  0  0  0  0  0
    8.5901   -7.5018    0.0000 C   0  0  0  0  0  0  0  0  0  0  0  0
   10.0022   -9.9511    0.0000 C   0  0  0  0  0  0  0  0  0  0  0  0
    5.7117   -9.9679    0.0000 C   0  0  0  0  0  0  0  0  0  0  0  0
    5.0000  -10.3798    0.0000 Cl  0  0  0  0  0  0  0  0  0  0  0  0
    5.7130   -9.1402    0.0000 C   0  0  0  0  0  0  0  0  0  0  0  0
    8.5747   -9.9572    0.0000 C   0  0  0  0  0  0  0  0  0  0  0  0
    9.2784   -8.7160    0.0000 C   0  0  0  0  0  0  0  0  0  0  0  0
    7.9044   -5.4255    0.0000 C   0  0  0  0  0  0  0  0  0  0  0  0
    7.1974   -5.0000    0.0000 O   0  0  0  0  0  0  0  0  0  0  0  0
    8.6264   -5.0260    0.0000 O   0  0  0  0  0  0  0  0  0  0  0  0
    9.3333   -5.4515    0.0000 C   0  0  0  0  0  0  0  0  0  0  0  0
   10.0514   -5.0518    0.0000 C   0  0  0  0  0  0  0  0  0  0  0  0
 20  6  1  0  0  0  0
  3 21  1  0  0  0  0
  8  5  2  0  0  0  0
  2  6  1  0  0  0  0
 21 22  2  0  0  0  0
  5  1  1  0  0  0  0
 16  8  1  0  0  0  0
  6 19  2  0  0  0  0
  1  7  2  0  0  0  0
 19 10  1  0  0  0  0
  7 18  1  0  0  0  0
 10 15  2  0  0  0  0
 18 16  2  0  0  0  0
 15  9  1  0  0  0  0
  4 14  1  0  0  0  0
  4  2  1  0  0  0  0
 21 23  1  0  0  0  0
  1  2  1  0  0  0  0
 23 24  1  0  0  0  0
 16 17  1  0  0  0  0
  9 20  2  0  0  0  0
  4 13  1  0  0  0  0
 14 12  1  0  0  0  0
 12  3  1  0  0  0  0
 25 24  1  0  0  0  0
  3 11  1  0  0  0  0
 11 13  1  0  0  0  0
M  END
> <Molecule Name>
DNDI1449758

> <CDD Number>
CDD-1535526

> <IC50_uM>
0.19 (n=1)

$$$$

SketchEl molfile

 25 27  0  0  0  0  0  0  0  0999 V2000
    7.9044   -5.4255    0.0000 C   0  0  0  0  0  0  0  0  0  0  0  0
    7.8893   -6.2505    0.0000 N   0  0  0  0  0  0  0  0  0  0  0  0
    7.8677   -7.9003    0.0000 N   0  0  0  0  0  0  0  0  0  0  0  0
    7.8573   -8.7253    0.0000 C   0  0  0  0  0  0  0  0  0  0  0  0
    8.5750   -9.1302    0.0000 C   0  0  0  0  0  0  0  0  0  0  0  0
    7.1974   -5.0000    0.0000 O   0  0  0  0  0  0  0  0  0  0  0  0
    9.9958   -9.1213    0.0000 N   0  0  0  0  0  0  0  0  0  0  0  0
    9.2869  -10.3667    0.0000 N   0  0  0  0  0  0  0  0  0  0  0  0
    7.1662   -6.6572    0.0000 C   0  0  0  0  0  0  0  0  0  0  0  0
    8.5933   -6.6809    0.0000 C   0  0  0  0  0  0  0  0  0  0  0  0
    7.1517   -7.4851    0.0000 C   0  0  0  0  0  0  0  0  0  0  0  0
    8.5901   -7.5018    0.0000 C   0  0  0  0  0  0  0  0  0  0  0  0
    7.1384   -9.1362    0.0000 C   0  0  0  0  0  0  0  0  0  0  0  0
   10.0022   -9.9511    0.0000 C   0  0  0  0  0  0  0  0  0  0  0  0
    8.6264   -5.0260    0.0000 N   0  0  0  0  0  0  0  0  0  0  0  0
    7.1416   -9.9673    0.0000 C   0  0  0  0  0  0  0  0  0  0  0  0
    6.4261   -8.7320    0.0000 C   0  0  0  0  0  0  0  0  0  0  0  0
    5.0000  -10.3798    0.0000 Cl  0  0  0  0  0  0  0  0  0  0  0  0
    9.2784   -8.7160    0.0000 C   0  0  0  0  0  0  0  0  0  0  0  0
    8.5747   -9.9572    0.0000 C   0  0  0  0  0  0  0  0  0  0  0  0
    5.7117   -9.9679    0.0000 C   0  0  0  0  0  0  0  0  0  0  0  0
    5.7130   -9.1402    0.0000 C   0  0  0  0  0  0  0  0  0  0  0  0
    6.4281  -10.3808    0.0000 C   0  0  0  0  0  0  0  0  0  0  0  0
    9.3333   -5.4515    0.0000 C   0  0  0  0  0  0  0  0  0  0  0  0
   10.0514   -5.0518    0.0000 C   0  0  0  0  0  0  0  0  0  0  0  0
 19  5  1  0  0  0  0
  2  1  1  0  0  0  0
 23 16  2  0  0  0  0
  4  5  1  0  0  0  0
  1  6  2  0  0  0  0
 16 13  1  0  0  0  0
 21 23  1  0  0  0  0
  5 20  2  0  0  0  0
 13 17  2  0  0  0  0
 20  8  1  0  0  0  0
 17 22  1  0  0  0  0
  8 14  2  0  0  0  0
 22 21  2  0  0  0  0
 14  7  1  0  0  0  0
  3 12  1  0  0  0  0
  3  4  1  0  0  0  0
  1 15  1  0  0  0  0
 13  4  1  0  0  0  0
 15 24  1  0  0  0  0
 21 18  1  0  0  0  0
  7 19  2  0  0  0  0
  3 11  1  0  0  0  0
 12 10  1  0  0  0  0
 10  2  1  0  0  0  0
 25 24  1  0  0  0  0
  2  9  1  0  0  0  0
  9 11  1  0  0  0  0
M  END
> <Molecule Name>
DNDI1449759

> <CDD Number>
CDD-1535527

> <IC50_uM>
0.83 (n=1)

$$$$

SketchEl molfile

 29 32  0  0  0  0  0  0  0  0999 V2000
    7.9040   -5.4254    0.0000 C   0  0  0  0  0  0  0  0  0  0  0  0
    7.8890   -6.2503    0.0000 N   0  0  0  0  0  0  0  0  0  0  0  0
    7.8674   -7.8999    0.0000 N   0  0  0  0  0  0  0  0  0  0  0  0
    8.6259   -5.0260    0.0000 N   0  0  0  0  0  0  0  0  0  0  0  0
    7.8569   -8.7248    0.0000 C   0  0  0  0  0  0  0  0  0  0  0  0
    8.5746   -9.1296    0.0000 C   0  0  0  0  0  0  0  0  0  0  0  0
    7.1971   -5.0000    0.0000 O   0  0  0  0  0  0  0  0  0  0  0  0
    9.2863  -10.3660    0.0000 N   0  0  0  0  0  0  0  0  0  0  0  0
    9.9951   -9.1208    0.0000 N   0  0  0  0  0  0  0  0  0  0  0  0
    8.5929   -6.6807    0.0000 C   0  0  0  0  0  0  0  0  0  0  0  0
    7.1659   -6.6570    0.0000 C   0  0  0  0  0  0  0  0  0  0  0  0
    8.5896   -7.5015    0.0000 C   0  0  0  0  0  0  0  0  0  0  0  0
    7.1514   -7.4847    0.0000 C   0  0  0  0  0  0  0  0  0  0  0  0
    7.1382   -9.1356    0.0000 C   0  0  0  0  0  0  0  0  0  0  0  0
   10.0016   -9.9504    0.0000 C   0  0  0  0  0  0  0  0  0  0  0  0
    7.1413   -9.9667    0.0000 C   0  0  0  0  0  0  0  0  0  0  0  0
    6.4259   -8.7315    0.0000 C   0  0  0  0  0  0  0  0  0  0  0  0
    5.0000  -10.3791    0.0000 Cl  0  0  0  0  0  0  0  0  0  0  0  0
    9.2778   -8.7156    0.0000 C   0  0  0  0  0  0  0  0  0  0  0  0
    8.5743   -9.9566    0.0000 C   0  0  0  0  0  0  0  0  0  0  0  0
    9.3328   -5.4515    0.0000 C   0  0  0  0  0  0  0  0  0  0  0  0
    5.7116   -9.9672    0.0000 C   0  0  0  0  0  0  0  0  0  0  0  0
    6.4279  -10.3801    0.0000 C   0  0  0  0  0  0  0  0  0  0  0  0
    5.7129   -9.1397    0.0000 C   0  0  0  0  0  0  0  0  0  0  0  0
    9.3160   -6.2768    0.0000 C   0  0  0  0  0  0  0  0  0  0  0  0
   10.0507   -5.0518    0.0000 C   0  0  0  0  0  0  0  0  0  0  0  0
   10.7574   -5.4734    0.0000 C   0  0  0  0  0  0  0  0  0  0  0  0
   10.0221   -6.7021    0.0000 C   0  0  0  0  0  0  0  0  0  0  0  0
   10.7449   -6.3026    0.0000 C   0  0  0  0  0  0  0  0  0  0  0  0
  1  7  2  0  0  0  0
 16 14  1  0  0  0  0
 22 23  1  0  0  0  0
  6 20  2  0  0  0  0
 14 17  2  0  0  0  0
 20  8  1  0  0  0  0
 17 24  1  0  0  0  0
  8 15  2  0  0  0  0
 24 22  2  0  0  0  0
 15  9  1  0  0  0  0
  3 12  1  0  0  0  0
  3  5  1  0  0  0  0
  1  4  1  0  0  0  0
 14  5  1  0  0  0  0
  4 21  1  0  0  0  0
 22 18  1  0  0  0  0
  9 19  2  0  0  0  0
  3 13  1  0  0  0  0
 12 10  1  0  0  0  0
 10  2  1  0  0  0  0
  2 11  1  0  0  0  0
 11 13  1  0  0  0  0
 21 25  2  0  0  0  0
 19  6  1  0  0  0  0
 25 28  1  0  0  0  0
  2  1  1  0  0  0  0
 28 29  2  0  0  0  0
 23 16  2  0  0  0  0
 29 27  1  0  0  0  0
  5  6  1  0  0  0  0
 27 26  2  0  0  0  0
 26 21  1  0  0  0  0
M  END
> <Molecule Name>
DNDI1449760

> <CDD Number>
CDD-1535528

> <IC50_uM>
0.12 (n=1)

$$$$

SketchEl molfile

 30 33  0  0  0  0  0  0  0  0999 V2000
   10.7484   -6.1872    0.0000 C   0  0  0  0  0  0  0  0  0  0  0  0
   11.4557   -6.6178    0.0000 N   0  0  0  0  0  0  0  0  0  0  0  0
    7.8657   -7.8169    0.0000 N   0  0  0  0  0  0  0  0  0  0  0  0
    8.5854   -7.4079    0.0000 C   0  0  0  0  0  0  0  0  0  0  0  0
    9.2964   -7.8292    0.0000 C   0  0  0  0  0  0  0  0  0  0  0  0
   10.0139   -7.4238    0.0000 C   0  0  0  0  0  0  0  0  0  0  0  0
   10.0239   -6.5957    0.0000 N   0  0  0  0  0  0  0  0  0  0  0  0
    9.3100   -6.1747    0.0000 C   0  0  0  0  0  0  0  0  0  0  0  0
    8.5862   -6.5817    0.0000 C   0  0  0  0  0  0  0  0  0  0  0  0
    7.8717   -8.6516    0.0000 C   0  0  0  0  0  0  0  0  0  0  0  0
    8.5919   -9.0579    0.0000 C   0  0  0  0  0  0  0  0  0  0  0  0
    9.3062  -10.2986    0.0000 N   0  0  0  0  0  0  0  0  0  0  0  0
    7.1504   -9.0639    0.0000 C   0  0  0  0  0  0  0  0  0  0  0  0
    6.4355   -8.6584    0.0000 C   0  0  0  0  0  0  0  0  0  0  0  0
    7.1536   -9.8979    0.0000 C   0  0  0  0  0  0  0  0  0  0  0  0
    5.7187   -9.8985    0.0000 C   0  0  0  0  0  0  0  0  0  0  0  0
    8.5916   -9.8878    0.0000 C   0  0  0  0  0  0  0  0  0  0  0  0
    5.7200   -9.0679    0.0000 C   0  0  0  0  0  0  0  0  0  0  0  0
    6.4376  -10.3128    0.0000 C   0  0  0  0  0  0  0  0  0  0  0  0
   10.0240   -9.8816    0.0000 C   0  0  0  0  0  0  0  0  0  0  0  0
    9.2977   -8.6423    0.0000 C   0  0  0  0  0  0  0  0  0  0  0  0
   10.0176   -9.0490    0.0000 C   0  0  0  0  0  0  0  0  0  0  0  0
    5.0000  -10.3130    0.0000 Cl  0  0  0  0  0  0  0  0  0  0  0  0
   10.7343   -5.4347    0.0000 O   0  0  0  0  0  0  0  0  0  0  0  0
   12.1778   -6.2201    0.0000 C   0  0  0  0  0  0  0  0  0  0  0  0
   12.8801   -6.6486    0.0000 C   0  0  0  0  0  0  0  0  0  0  0  0
   13.6016   -6.2515    0.0000 C   0  0  0  0  0  0  0  0  0  0  0  0
   13.6187   -5.4264    0.0000 C   0  0  0  0  0  0  0  0  0  0  0  0
   12.9082   -5.0000    0.0000 C   0  0  0  0  0  0  0  0  0  0  0  0
   12.1895   -5.3995    0.0000 C   0  0  0  0  0  0  0  0  0  0  0  0
 16 19  1  0  0  0  0
 11 17  2  0  0  0  0
 13 14  2  0  0  0  0
 17 12  1  0  0  0  0
 14 18  1  0  0  0  0
  1 24  2  0  0  0  0
 12 20  2  0  0  0  0
 18 16  2  0  0  0  0
 20 22  1  0  0  0  0
 16 23  1  0  0  0  0
 10  3  1  0  0  0  0
  7  1  1  0  0  0  0
  7  8  1  0  0  0  0
  8  9  1  0  0  0  0
  3  4  1  0  0  0  0
  4  5  1  0  0  0  0
  4  9  1  0  0  0  0
  5  6  1  0  0  0  0
  6  7  1  0  0  0  0
  1  2  1  0  0  0  0
 13 10  1  0  0  0  0
 22 21  2  0  0  0  0
 25  2  1  0  0  0  0
 25 26  2  0  0  0  0
 21 11  1  0  0  0  0
 26 27  1  0  0  0  0
 19 15  2  0  0  0  0
 27 28  2  0  0  0  0
 10 11  1  0  0  0  0
 28 29  1  0  0  0  0
 15 13  1  0  0  0  0
 29 30  2  0  0  0  0
 30 25  1  0  0  0  0
M  END
> <Molecule Name>
DNDI1449761

> <CDD Number>
CDD-1535529

> <IC50_uM>
0.078 (n=1)

$$$$

SketchEl molfile

 25 27  0  0  0  0  0  0  0  0999 V2000
    7.9039   -6.2243    0.0000 C   0  0  0  0  0  0  0  0  0  0  0  0
    7.8889   -7.0492    0.0000 N   0  0  0  0  0  0  0  0  0  0  0  0
    7.8673   -8.6988    0.0000 N   0  0  0  0  0  0  0  0  0  0  0  0
    8.6258   -5.8249    0.0000 N   0  0  0  0  0  0  0  0  0  0  0  0
    7.8569   -9.5236    0.0000 C   0  0  0  0  0  0  0  0  0  0  0  0
    8.5745   -9.9285    0.0000 C   0  0  0  0  0  0  0  0  0  0  0  0
    7.1971   -5.7989    0.0000 O   0  0  0  0  0  0  0  0  0  0  0  0
    9.2862  -11.1648    0.0000 N   0  0  0  0  0  0  0  0  0  0  0  0
    9.9950   -9.9196    0.0000 C   0  0  0  0  0  0  0  0  0  0  0  0
    8.5928   -7.4796    0.0000 C   0  0  0  0  0  0  0  0  0  0  0  0
    7.1659   -7.4559    0.0000 C   0  0  0  0  0  0  0  0  0  0  0  0
    8.5895   -8.3004    0.0000 C   0  0  0  0  0  0  0  0  0  0  0  0
    7.1514   -8.2836    0.0000 C   0  0  0  0  0  0  0  0  0  0  0  0
    7.1381   -9.9345    0.0000 C   0  0  0  0  0  0  0  0  0  0  0  0
   10.0015  -10.7492    0.0000 C   0  0  0  0  0  0  0  0  0  0  0  0
    7.1413  -10.7655    0.0000 C   0  0  0  0  0  0  0  0  0  0  0  0
    6.4258   -9.5304    0.0000 C   0  0  0  0  0  0  0  0  0  0  0  0
    5.0000  -11.1779    0.0000 Cl  0  0  0  0  0  0  0  0  0  0  0  0
    9.2777   -9.5144    0.0000 C   0  0  0  0  0  0  0  0  0  0  0  0
    8.5742  -10.7554    0.0000 C   0  0  0  0  0  0  0  0  0  0  0  0
    9.3327   -6.2504    0.0000 C   0  0  0  0  0  0  0  0  0  0  0  0
    5.7116  -10.7660    0.0000 C   0  0  0  0  0  0  0  0  0  0  0  0
    6.4279  -11.1789    0.0000 C   0  0  0  0  0  0  0  0  0  0  0  0
    5.7129   -9.9385    0.0000 C   0  0  0  0  0  0  0  0  0  0  0  0
    8.6408   -5.0000    0.0000 C   0  0  0  0  0  0  0  0  0  0  0  0
  1  7  2  0  0  0  0
 16 14  1  0  0  0  0
 22 23  1  0  0  0  0
  6 20  2  0  0  0  0
 14 17  2  0  0  0  0
 20  8  1  0  0  0  0
 17 24  1  0  0  0  0
  8 15  2  0  0  0  0
 24 22  2  0  0  0  0
 15  9  1  0  0  0  0
  3 12  1  0  0  0  0
  3  5  1  0  0  0  0
  1  4  1  0  0  0  0
 14  5  1  0  0  0  0
  4 21  1  0  0  0  0
 22 18  1  0  0  0  0
  9 19  2  0  0  0  0
  3 13  1  0  0  0  0
 12 10  1  0  0  0  0
 10  2  1  0  0  0  0
  2 11  1  0  0  0  0
 11 13  1  0  0  0  0
 19  6  1  0  0  0  0
  2  1  1  0  0  0  0
 23 16  2  0  0  0  0
  5  6  1  0  0  0  0
  4 25  1  0  0  0  0
M  END
> <Molecule Name>
DNDI1449762

> <CDD Number>
CDD-1535530

> <IC50_uM>
0.12 (n=1)

$$$$

SketchEl molfile

 30 33  0  0  0  0  0  0  0  0999 V2000
    7.9045   -6.5954    0.0000 C   0  0  0  0  0  0  0  0  0  0  0  0
    7.8894   -7.4205    0.0000 N   0  0  0  0  0  0  0  0  0  0  0  0
    7.8678   -9.0703    0.0000 N   0  0  0  0  0  0  0  0  0  0  0  0
    8.6265   -6.1959    0.0000 O   0  0  0  0  0  0  0  0  0  0  0  0
    7.8574   -9.8953    0.0000 C   0  0  0  0  0  0  0  0  0  0  0  0
    8.5751  -10.3002    0.0000 C   0  0  0  0  0  0  0  0  0  0  0  0
    7.1975   -6.1699    0.0000 O   0  0  0  0  0  0  0  0  0  0  0  0
    9.2870  -11.5368    0.0000 N   0  0  0  0  0  0  0  0  0  0  0  0
    9.9959  -10.2914    0.0000 C   0  0  0  0  0  0  0  0  0  0  0  0
    8.5935   -7.8509    0.0000 C   0  0  0  0  0  0  0  0  0  0  0  0
    7.1663   -7.8272    0.0000 C   0  0  0  0  0  0  0  0  0  0  0  0
    8.5902   -8.6719    0.0000 C   0  0  0  0  0  0  0  0  0  0  0  0
    7.1517   -8.6551    0.0000 C   0  0  0  0  0  0  0  0  0  0  0  0
    7.1385  -10.3062    0.0000 C   0  0  0  0  0  0  0  0  0  0  0  0
   10.0024  -11.1212    0.0000 C   0  0  0  0  0  0  0  0  0  0  0  0
    7.1417  -11.1374    0.0000 C   0  0  0  0  0  0  0  0  0  0  0  0
    6.4261   -9.9021    0.0000 C   0  0  0  0  0  0  0  0  0  0  0  0
    5.0000  -11.5499    0.0000 Cl  0  0  0  0  0  0  0  0  0  0  0  0
    9.2785   -9.8861    0.0000 C   0  0  0  0  0  0  0  0  0  0  0  0
    8.5748  -11.1273    0.0000 C   0  0  0  0  0  0  0  0  0  0  0  0
    9.3335   -6.6215    0.0000 C   0  0  0  0  0  0  0  0  0  0  0  0
    5.7117  -11.1380    0.0000 C   0  0  0  0  0  0  0  0  0  0  0  0
    6.4281  -11.5509    0.0000 C   0  0  0  0  0  0  0  0  0  0  0  0
    5.7130  -10.3103    0.0000 C   0  0  0  0  0  0  0  0  0  0  0  0
   10.0555   -6.2220    0.0000 C   0  0  0  0  0  0  0  0  0  0  0  0
   10.7574   -6.6502    0.0000 C   0  0  0  0  0  0  0  0  0  0  0  0
   11.4789   -6.2514    0.0000 C   0  0  0  0  0  0  0  0  0  0  0  0
   11.4944   -5.4254    0.0000 C   0  0  0  0  0  0  0  0  0  0  0  0
   10.7824   -5.0000    0.0000 C   0  0  0  0  0  0  0  0  0  0  0  0
   10.0638   -5.4012    0.0000 C   0  0  0  0  0  0  0  0  0  0  0  0
 20  8  1  0  0  0  0
 17 24  1  0  0  0  0
  8 15  2  0  0  0  0
 24 22  2  0  0  0  0
 15  9  1  0  0  0  0
  3 12  1  0  0  0  0
  3  5  1  0  0  0  0
  1  4  1  0  0  0  0
 14  5  1  0  0  0  0
  4 21  1  0  0  0  0
 22 18  1  0  0  0  0
  9 19  2  0  0  0  0
  3 13  1  0  0  0  0
 12 10  1  0  0  0  0
 10  2  1  0  0  0  0
  2 11  1  0  0  0  0
 11 13  1  0  0  0  0
 19  6  1  0  0  0  0
  2  1  1  0  0  0  0
 23 16  2  0  0  0  0
  5  6  1  0  0  0  0
 21 25  1  0  0  0  0
  1  7  2  0  0  0  0
 25 26  2  0  0  0  0
 16 14  1  0  0  0  0
 26 27  1  0  0  0  0
 22 23  1  0  0  0  0
 27 28  2  0  0  0  0
  6 20  2  0  0  0  0
 28 29  1  0  0  0  0
 14 17  2  0  0  0  0
 29 30  2  0  0  0  0
 30 25  1  0  0  0  0
M  END
> <Molecule Name>
DNDI1449763

> <CDD Number>
CDD-1535531

> <IC50_uM>
0.034 (n=1)

$$$$

SketchEl molfile

 25 27  0  0  0  0  0  0  0  0999 V2000
    7.9039   -5.4254    0.0000 C   0  0  0  0  0  0  0  0  0  0  0  0
    7.8889   -6.2503    0.0000 N   0  0  0  0  0  0  0  0  0  0  0  0
    7.8673   -7.8999    0.0000 N   0  0  0  0  0  0  0  0  0  0  0  0
    8.6258   -5.0260    0.0000 O   0  0  0  0  0  0  0  0  0  0  0  0
    7.8569   -8.7247    0.0000 C   0  0  0  0  0  0  0  0  0  0  0  0
    8.5745   -9.1296    0.0000 C   0  0  0  0  0  0  0  0  0  0  0  0
    7.1971   -5.0000    0.0000 O   0  0  0  0  0  0  0  0  0  0  0  0
    9.2862  -10.3659    0.0000 N   0  0  0  0  0  0  0  0  0  0  0  0
    9.9950   -9.1207    0.0000 C   0  0  0  0  0  0  0  0  0  0  0  0
    8.5928   -6.6807    0.0000 C   0  0  0  0  0  0  0  0  0  0  0  0
    7.1659   -6.6570    0.0000 C   0  0  0  0  0  0  0  0  0  0  0  0
    8.5895   -7.5015    0.0000 C   0  0  0  0  0  0  0  0  0  0  0  0
    7.1514   -7.4847    0.0000 C   0  0  0  0  0  0  0  0  0  0  0  0
    7.1381   -9.1356    0.0000 C   0  0  0  0  0  0  0  0  0  0  0  0
   10.0015   -9.9503    0.0000 C   0  0  0  0  0  0  0  0  0  0  0  0
    7.1413   -9.9666    0.0000 C   0  0  0  0  0  0  0  0  0  0  0  0
    6.4258   -8.7315    0.0000 C   0  0  0  0  0  0  0  0  0  0  0  0
    5.0000  -10.3790    0.0000 Cl  0  0  0  0  0  0  0  0  0  0  0  0
    9.2777   -8.7155    0.0000 C   0  0  0  0  0  0  0  0  0  0  0  0
    8.5742   -9.9565    0.0000 C   0  0  0  0  0  0  0  0  0  0  0  0
    9.3327   -5.4514    0.0000 C   0  0  0  0  0  0  0  0  0  0  0  0
    5.7116   -9.9671    0.0000 C   0  0  0  0  0  0  0  0  0  0  0  0
    6.4279  -10.3800    0.0000 C   0  0  0  0  0  0  0  0  0  0  0  0
    5.7129   -9.1396    0.0000 C   0  0  0  0  0  0  0  0  0  0  0  0
   10.0546   -5.0520    0.0000 C   0  0  0  0  0  0  0  0  0  0  0  0
 20  8  1  0  0  0  0
 17 24  1  0  0  0  0
  8 15  2  0  0  0  0
 24 22  2  0  0  0  0
 15  9  1  0  0  0  0
  3 12  1  0  0  0  0
  3  5  1  0  0  0  0
  1  4  1  0  0  0  0
 14  5  1  0  0  0  0
  4 21  1  0  0  0  0
 22 18  1  0  0  0  0
  9 19  2  0  0  0  0
  3 13  1  0  0  0  0
 12 10  1  0  0  0  0
 10  2  1  0  0  0  0
  2 11  1  0  0  0  0
 11 13  1  0  0  0  0
 19  6  1  0  0  0  0
  2  1  1  0  0  0  0
 23 16  2  0  0  0  0
  5  6  1  0  0  0  0
 21 25  1  0  0  0  0
  1  7  2  0  0  0  0
 16 14  1  0  0  0  0
 22 23  1  0  0  0  0
  6 20  2  0  0  0  0
 14 17  2  0  0  0  0
M  END
> <Molecule Name>
DNDI1449764

> <CDD Number>
CDD-1535532

> <IC50_uM>
0.058 (n=1)

$$$$

SketchEl molfile

 27 29  0  0  0  0  0  0  0  0999 V2000
    7.9039   -5.7746    0.0000 C   0  0  0  0  0  0  0  0  0  0  0  0
    7.8889   -6.5995    0.0000 N   0  0  0  0  0  0  0  0  0  0  0  0
    7.8673   -8.2491    0.0000 N   0  0  0  0  0  0  0  0  0  0  0  0
    8.6258   -5.3752    0.0000 C   0  0  0  0  0  0  0  0  0  0  0  0
    7.8569   -9.0739    0.0000 C   0  0  0  0  0  0  0  0  0  0  0  0
    8.5745   -9.4788    0.0000 C   0  0  0  0  0  0  0  0  0  0  0  0
    7.1971   -5.3492    0.0000 O   0  0  0  0  0  0  0  0  0  0  0  0
    9.2862  -10.7151    0.0000 N   0  0  0  0  0  0  0  0  0  0  0  0
    9.9950   -9.4699    0.0000 N   0  0  0  0  0  0  0  0  0  0  0  0
    8.5928   -7.0299    0.0000 C   0  0  0  0  0  0  0  0  0  0  0  0
    7.1659   -7.0062    0.0000 C   0  0  0  0  0  0  0  0  0  0  0  0
    8.5895   -7.8507    0.0000 C   0  0  0  0  0  0  0  0  0  0  0  0
    7.1514   -7.8339    0.0000 C   0  0  0  0  0  0  0  0  0  0  0  0
    7.1381   -9.4848    0.0000 C   0  0  0  0  0  0  0  0  0  0  0  0
   10.0015  -10.2995    0.0000 C   0  0  0  0  0  0  0  0  0  0  0  0
    7.1413  -10.3158    0.0000 C   0  0  0  0  0  0  0  0  0  0  0  0
    6.4258   -9.0807    0.0000 C   0  0  0  0  0  0  0  0  0  0  0  0
    5.0000  -10.7282    0.0000 Cl  0  0  0  0  0  0  0  0  0  0  0  0
    9.2777   -9.0647    0.0000 C   0  0  0  0  0  0  0  0  0  0  0  0
    8.5742  -10.3057    0.0000 C   0  0  0  0  0  0  0  0  0  0  0  0
    9.3327   -5.8007    0.0000 C   0  0  0  0  0  0  0  0  0  0  0  0
    5.7116  -10.3163    0.0000 C   0  0  0  0  0  0  0  0  0  0  0  0
    6.4279  -10.7292    0.0000 C   0  0  0  0  0  0  0  0  0  0  0  0
    5.7129   -9.4888    0.0000 C   0  0  0  0  0  0  0  0  0  0  0  0
   10.0546   -5.4012    0.0000 C   0  0  0  0  0  0  0  0  0  0  0  0
    9.3176   -6.6255    0.0000 C   0  0  0  0  0  0  0  0  0  0  0  0
    9.1337   -5.0000    0.0000 C   0  0  0  0  0  0  0  0  0  0  0  0
  8 15  2  0  0  0  0
 24 22  2  0  0  0  0
 15  9  1  0  0  0  0
  3 12  1  0  0  0  0
  3  5  1  0  0  0  0
  1  4  1  0  0  0  0
 14  5  1  0  0  0  0
  4 21  1  0  0  0  0
 22 18  1  0  0  0  0
  9 19  2  0  0  0  0
  3 13  1  0  0  0  0
 12 10  1  0  0  0  0
 10  2  1  0  0  0  0
  2 11  1  0  0  0  0
 11 13  1  0  0  0  0
 19  6  1  0  0  0  0
  2  1  1  0  0  0  0
 23 16  2  0  0  0  0
  5  6  1  0  0  0  0
 21 25  1  0  0  0  0
  1  7  2  0  0  0  0
 16 14  1  0  0  0  0
 22 23  1  0  0  0  0
  6 20  2  0  0  0  0
 14 17  2  0  0  0  0
 20  8  1  0  0  0  0
 17 24  1  0  0  0  0
 21 26  1  0  0  0  0
 21 27  1  0  0  0  0
M  END
> <Molecule Name>
DNDI1449765

> <CDD Number>
CDD-1535533

> <IC50_uM>
0.24 (n=1)

$$$$

SketchEl molfile

 28 30  0  0  0  0  0  0  0  0999 V2000
   10.7484   -5.7877    0.0000 C   0  0  0  0  0  0  0  0  0  0  0  0
   11.4558   -6.2184    0.0000 N   0  0  0  0  0  0  0  0  0  0  0  0
    7.8658   -7.4174    0.0000 N   0  0  0  0  0  0  0  0  0  0  0  0
    8.5855   -7.0085    0.0000 C   0  0  0  0  0  0  0  0  0  0  0  0
    9.2964   -7.4298    0.0000 C   0  0  0  0  0  0  0  0  0  0  0  0
   10.0140   -7.0244    0.0000 C   0  0  0  0  0  0  0  0  0  0  0  0
   10.0240   -6.1962    0.0000 N   0  0  0  0  0  0  0  0  0  0  0  0
    9.3101   -5.7752    0.0000 C   0  0  0  0  0  0  0  0  0  0  0  0
    8.5863   -6.1823    0.0000 C   0  0  0  0  0  0  0  0  0  0  0  0
    7.8718   -8.2522    0.0000 C   0  0  0  0  0  0  0  0  0  0  0  0
    8.5920   -8.6585    0.0000 C   0  0  0  0  0  0  0  0  0  0  0  0
    9.3063   -9.8992    0.0000 N   0  0  0  0  0  0  0  0  0  0  0  0
    7.1504   -8.6645    0.0000 C   0  0  0  0  0  0  0  0  0  0  0  0
    6.4356   -8.2589    0.0000 C   0  0  0  0  0  0  0  0  0  0  0  0
    7.1536   -9.4985    0.0000 C   0  0  0  0  0  0  0  0  0  0  0  0
    5.7187   -9.4991    0.0000 C   0  0  0  0  0  0  0  0  0  0  0  0
    8.5917   -9.4884    0.0000 C   0  0  0  0  0  0  0  0  0  0  0  0
    5.7200   -8.6685    0.0000 C   0  0  0  0  0  0  0  0  0  0  0  0
    6.4376   -9.9134    0.0000 C   0  0  0  0  0  0  0  0  0  0  0  0
   10.0241   -9.4822    0.0000 C   0  0  0  0  0  0  0  0  0  0  0  0
    9.2978   -8.2429    0.0000 C   0  0  0  0  0  0  0  0  0  0  0  0
   10.0177   -8.6496    0.0000 C   0  0  0  0  0  0  0  0  0  0  0  0
    5.0000   -9.9136    0.0000 Cl  0  0  0  0  0  0  0  0  0  0  0  0
   10.7344   -5.0352    0.0000 O   0  0  0  0  0  0  0  0  0  0  0  0
   12.1779   -5.8206    0.0000 C   0  0  0  0  0  0  0  0  0  0  0  0
   12.8802   -6.2491    0.0000 C   0  0  0  0  0  0  0  0  0  0  0  0
   12.1896   -5.0000    0.0000 C   0  0  0  0  0  0  0  0  0  0  0  0
   12.7720   -5.2490    0.0000 C   0  0  0  0  0  0  0  0  0  0  0  0
 16 19  1  0  0  0  0
 11 17  2  0  0  0  0
 13 14  2  0  0  0  0
 17 12  1  0  0  0  0
 14 18  1  0  0  0  0
  1 24  2  0  0  0  0
 12 20  2  0  0  0  0
 18 16  2  0  0  0  0
 20 22  1  0  0  0  0
 16 23  1  0  0  0  0
 10  3  1  0  0  0  0
  7  1  1  0  0  0  0
  7  8  1  0  0  0  0
  8  9  1  0  0  0  0
  3  4  1  0  0  0  0
  4  5  1  0  0  0  0
  4  9  1  0  0  0  0
  5  6  1  0  0  0  0
  6  7  1  0  0  0  0
  1  2  1  0  0  0  0
 13 10  1  0  0  0  0
 22 21  2  0  0  0  0
 25  2  1  0  0  0  0
 25 26  1  0  0  0  0
 21 11  1  0  0  0  0
 19 15  2  0  0  0  0
 10 11  1  0  0  0  0
 15 13  1  0  0  0  0
 27 25  1  0  0  0  0
 25 28  1  0  0  0  0
M  END
> <Molecule Name>
DNDI1449766

> <CDD Number>
CDD-1535534

> <IC50_uM>
0.06 (n=1)

$$$$

SketchEl molfile

 31 34  0  0  0  0  0  0  0  0999 V2000
   10.7483   -6.1872    0.0000 C   0  0  0  0  0  0  0  0  0  0  0  0
   11.4557   -6.6179    0.0000 N   0  0  0  0  0  0  0  0  0  0  0  0
    7.8657   -7.8169    0.0000 N   0  0  0  0  0  0  0  0  0  0  0  0
    8.5854   -7.4079    0.0000 C   0  0  0  0  0  0  0  0  0  0  0  0
    9.2963   -7.8293    0.0000 C   0  0  0  0  0  0  0  0  0  0  0  0
   10.0139   -7.4238    0.0000 C   0  0  0  0  0  0  0  0  0  0  0  0
   10.0239   -6.5957    0.0000 N   0  0  0  0  0  0  0  0  0  0  0  0
    9.3100   -6.1747    0.0000 C   0  0  0  0  0  0  0  0  0  0  0  0
    8.5862   -6.5818    0.0000 C   0  0  0  0  0  0  0  0  0  0  0  0
    7.8717   -8.6516    0.0000 C   0  0  0  0  0  0  0  0  0  0  0  0
    8.5919   -9.0579    0.0000 C   0  0  0  0  0  0  0  0  0  0  0  0
    9.3062  -10.2986    0.0000 N   0  0  0  0  0  0  0  0  0  0  0  0
    7.1503   -9.0639    0.0000 C   0  0  0  0  0  0  0  0  0  0  0  0
    6.4355   -8.6584    0.0000 C   0  0  0  0  0  0  0  0  0  0  0  0
    7.1535   -9.8979    0.0000 C   0  0  0  0  0  0  0  0  0  0  0  0
    5.7187   -9.8985    0.0000 C   0  0  0  0  0  0  0  0  0  0  0  0
    8.5916   -9.8878    0.0000 C   0  0  0  0  0  0  0  0  0  0  0  0
    5.7200   -9.0680    0.0000 C   0  0  0  0  0  0  0  0  0  0  0  0
    6.4375  -10.3128    0.0000 C   0  0  0  0  0  0  0  0  0  0  0  0
   10.0240   -9.8816    0.0000 C   0  0  0  0  0  0  0  0  0  0  0  0
    9.2977   -8.6423    0.0000 C   0  0  0  0  0  0  0  0  0  0  0  0
   10.0175   -9.0490    0.0000 C   0  0  0  0  0  0  0  0  0  0  0  0
    5.0000  -10.3130    0.0000 Cl  0  0  0  0  0  0  0  0  0  0  0  0
   10.7343   -5.4347    0.0000 O   0  0  0  0  0  0  0  0  0  0  0  0
   12.1777   -6.2202    0.0000 C   0  0  0  0  0  0  0  0  0  0  0  0
   12.8800   -6.6486    0.0000 C   0  0  0  0  0  0  0  0  0  0  0  0
   13.6016   -6.2515    0.0000 C   0  0  0  0  0  0  0  0  0  0  0  0
   13.6186   -5.4265    0.0000 C   0  0  0  0  0  0  0  0  0  0  0  0
   12.9081   -5.0000    0.0000 C   0  0  0  0  0  0  0  0  0  0  0  0
   12.1894   -5.3995    0.0000 C   0  0  0  0  0  0  0  0  0  0  0  0
   14.3409   -5.0273    0.0000 Cl  0  0  0  0  0  0  0  0  0  0  0  0
  1 24  2  0  0  0  0
 12 20  2  0  0  0  0
 18 16  2  0  0  0  0
 20 22  1  0  0  0  0
 16 23  1  0  0  0  0
 10  3  1  0  0  0  0
  7  1  1  0  0  0  0
  7  8  1  0  0  0  0
  8  9  1  0  0  0  0
  3  4  1  0  0  0  0
  4  5  1  0  0  0  0
  4  9  1  0  0  0  0
  5  6  1  0  0  0  0
  6  7  1  0  0  0  0
  1  2  1  0  0  0  0
 13 10  1  0  0  0  0
 22 21  2  0  0  0  0
 25  2  1  0  0  0  0
 21 11  1  0  0  0  0
 19 15  2  0  0  0  0
 10 11  1  0  0  0  0
 15 13  1  0  0  0  0
 25 26  2  0  0  0  0
 16 19  1  0  0  0  0
 26 27  1  0  0  0  0
 11 17  2  0  0  0  0
 27 28  2  0  0  0  0
 13 14  2  0  0  0  0
 28 29  1  0  0  0  0
 17 12  1  0  0  0  0
 29 30  2  0  0  0  0
 30 25  1  0  0  0  0
 14 18  1  0  0  0  0
 28 31  1  0  0  0  0
M  END
> <Molecule Name>
DNDI1449767

> <CDD Number>
CDD-1535535

> <IC50_uM>
0.025 (n=1)

$$$$

SketchEl molfile

 33 36  0  0  0  0  0  0  0  0999 V2000
   10.7482   -6.9850    0.0000 C   0  0  0  0  0  0  0  0  0  0  0  0
   11.4556   -7.4156    0.0000 N   0  0  0  0  0  0  0  0  0  0  0  0
    7.8656   -8.6146    0.0000 N   0  0  0  0  0  0  0  0  0  0  0  0
    8.5853   -8.2057    0.0000 C   0  0  0  0  0  0  0  0  0  0  0  0
    9.2963   -8.6270    0.0000 C   0  0  0  0  0  0  0  0  0  0  0  0
   10.0138   -8.2216    0.0000 C   0  0  0  0  0  0  0  0  0  0  0  0
   10.0238   -7.3935    0.0000 N   0  0  0  0  0  0  0  0  0  0  0  0
    9.3099   -6.9725    0.0000 C   0  0  0  0  0  0  0  0  0  0  0  0
    8.5861   -7.3795    0.0000 C   0  0  0  0  0  0  0  0  0  0  0  0
    7.8716   -9.4493    0.0000 C   0  0  0  0  0  0  0  0  0  0  0  0
    8.5918   -9.8556    0.0000 C   0  0  0  0  0  0  0  0  0  0  0  0
    9.3061  -11.0963    0.0000 N   0  0  0  0  0  0  0  0  0  0  0  0
    7.1503   -9.8616    0.0000 C   0  0  0  0  0  0  0  0  0  0  0  0
    6.4355   -9.4561    0.0000 C   0  0  0  0  0  0  0  0  0  0  0  0
    7.1535  -10.6956    0.0000 C   0  0  0  0  0  0  0  0  0  0  0  0
    5.7187  -10.6962    0.0000 C   0  0  0  0  0  0  0  0  0  0  0  0
    8.5915  -10.6855    0.0000 C   0  0  0  0  0  0  0  0  0  0  0  0
    5.7200   -9.8657    0.0000 C   0  0  0  0  0  0  0  0  0  0  0  0
    6.4375  -11.1105    0.0000 C   0  0  0  0  0  0  0  0  0  0  0  0
   10.0239  -10.6793    0.0000 C   0  0  0  0  0  0  0  0  0  0  0  0
    9.2976   -9.4401    0.0000 C   0  0  0  0  0  0  0  0  0  0  0  0
   10.0174   -9.8467    0.0000 C   0  0  0  0  0  0  0  0  0  0  0  0
    5.0000  -11.1107    0.0000 Cl  0  0  0  0  0  0  0  0  0  0  0  0
   10.7342   -6.2325    0.0000 O   0  0  0  0  0  0  0  0  0  0  0  0
   12.1776   -7.0179    0.0000 C   0  0  0  0  0  0  0  0  0  0  0  0
   12.8798   -7.4463    0.0000 C   0  0  0  0  0  0  0  0  0  0  0  0
   13.6014   -7.0493    0.0000 C   0  0  0  0  0  0  0  0  0  0  0  0
   13.6185   -6.2242    0.0000 C   0  0  0  0  0  0  0  0  0  0  0  0
   12.9080   -5.7978    0.0000 C   0  0  0  0  0  0  0  0  0  0  0  0
   12.1893   -6.1973    0.0000 C   0  0  0  0  0  0  0  0  0  0  0  0
   14.3408   -5.8251    0.0000 C   0  0  0  0  0  0  0  0  0  0  0  0
   15.0476   -6.2511    0.0000 C   0  0  0  0  0  0  0  0  0  0  0  0
   14.3563   -5.0000    0.0000 C   0  0  0  0  0  0  0  0  0  0  0  0
 12 20  2  0  0  0  0
 18 16  2  0  0  0  0
 20 22  1  0  0  0  0
 16 23  1  0  0  0  0
 10  3  1  0  0  0  0
  7  1  1  0  0  0  0
  7  8  1  0  0  0  0
  8  9  1  0  0  0  0
  3  4  1  0  0  0  0
  4  5  1  0  0  0  0
  4  9  1  0  0  0  0
  5  6  1  0  0  0  0
  6  7  1  0  0  0  0
  1  2  1  0  0  0  0
 13 10  1  0  0  0  0
 22 21  2  0  0  0  0
 25  2  1  0  0  0  0
 21 11  1  0  0  0  0
 19 15  2  0  0  0  0
 10 11  1  0  0  0  0
 15 13  1  0  0  0  0
 25 26  2  0  0  0  0
 16 19  1  0  0  0  0
 26 27  1  0  0  0  0
 11 17  2  0  0  0  0
 27 28  2  0  0  0  0
 13 14  2  0  0  0  0
 28 29  1  0  0  0  0
 17 12  1  0  0  0  0
 29 30  2  0  0  0  0
 30 25  1  0  0  0  0
 14 18  1  0  0  0  0
 28 31  1  0  0  0  0
 31 32  1  0  0  0  0
  1 24  2  0  0  0  0
 31 33  1  0  0  0  0
M  END
> <Molecule Name>
DNDI1449768

> <CDD Number>
CDD-1535536

> <IC50_uM>
0.005 (n=1)

$$$$

SketchEl molfile

 26 28  0  0  0  0  0  0  0  0999 V2000
   10.7472   -5.7524    0.0000 C   0  0  0  0  0  0  0  0  0  0  0  0
   11.4545   -6.1830    0.0000 O   0  0  0  0  0  0  0  0  0  0  0  0
    7.8652   -7.3818    0.0000 N   0  0  0  0  0  0  0  0  0  0  0  0
    8.5847   -6.9729    0.0000 C   0  0  0  0  0  0  0  0  0  0  0  0
    9.2955   -7.3941    0.0000 C   0  0  0  0  0  0  0  0  0  0  0  0
   10.0130   -6.9888    0.0000 C   0  0  0  0  0  0  0  0  0  0  0  0
   10.0229   -6.1608    0.0000 N   0  0  0  0  0  0  0  0  0  0  0  0
    9.3092   -5.7399    0.0000 C   0  0  0  0  0  0  0  0  0  0  0  0
    8.5855   -6.1469    0.0000 C   0  0  0  0  0  0  0  0  0  0  0  0
    7.8712   -8.2163    0.0000 C   0  0  0  0  0  0  0  0  0  0  0  0
    8.5912   -8.6225    0.0000 C   0  0  0  0  0  0  0  0  0  0  0  0
    9.3054   -9.8630    0.0000 N   0  0  0  0  0  0  0  0  0  0  0  0
    7.1499   -8.6285    0.0000 C   0  0  0  0  0  0  0  0  0  0  0  0
    6.4353   -8.2231    0.0000 C   0  0  0  0  0  0  0  0  0  0  0  0
    7.1531   -9.4624    0.0000 C   0  0  0  0  0  0  0  0  0  0  0  0
    5.7186   -9.4629    0.0000 C   0  0  0  0  0  0  0  0  0  0  0  0
    8.5909   -9.4523    0.0000 C   0  0  0  0  0  0  0  0  0  0  0  0
    5.7199   -8.6326    0.0000 C   0  0  0  0  0  0  0  0  0  0  0  0
    6.4373   -9.8772    0.0000 C   0  0  0  0  0  0  0  0  0  0  0  0
   10.0231   -9.4461    0.0000 C   0  0  0  0  0  0  0  0  0  0  0  0
    9.2969   -8.2070    0.0000 C   0  0  0  0  0  0  0  0  0  0  0  0
   10.0166   -8.6136    0.0000 C   0  0  0  0  0  0  0  0  0  0  0  0
    5.0000   -9.8774    0.0000 Cl  0  0  0  0  0  0  0  0  0  0  0  0
   10.7332   -5.0000    0.0000 O   0  0  0  0  0  0  0  0  0  0  0  0
   12.1764   -5.7853    0.0000 C   0  0  0  0  0  0  0  0  0  0  0  0
   12.8785   -6.2137    0.0000 C   0  0  0  0  0  0  0  0  0  0  0  0
 12 20  2  0  0  0  0
 18 16  2  0  0  0  0
 20 22  1  0  0  0  0
 16 23  1  0  0  0  0
 10  3  1  0  0  0  0
  7  1  1  0  0  0  0
  7  8  1  0  0  0  0
  8  9  1  0  0  0  0
  3  4  1  0  0  0  0
  4  5  1  0  0  0  0
  4  9  1  0  0  0  0
  5  6  1  0  0  0  0
  6  7  1  0  0  0  0
  1  2  1  0  0  0  0
 13 10  1  0  0  0  0
 22 21  2  0  0  0  0
 25  2  1  0  0  0  0
 21 11  1  0  0  0  0
 19 15  2  0  0  0  0
 10 11  1  0  0  0  0
 15 13  1  0  0  0  0
 25 26  1  0  0  0  0
 16 19  1  0  0  0  0
 11 17  2  0  0  0  0
 13 14  2  0  0  0  0
 17 12  1  0  0  0  0
 14 18  1  0  0  0  0
  1 24  2  0  0  0  0
M  END
> <Molecule Name>
DNDI1449769

> <CDD Number>
CDD-1535537

> <IC50_uM>
0.07 (n=1)

$$$$

SketchEl molfile

 26 28  0  0  0  0  0  0  0  0999 V2000
   10.7459   -5.7522    0.0000 C   0  0  0  0  0  0  0  0  0  0  0  0
   11.4529   -6.1827    0.0000 N   0  0  0  0  0  0  0  0  0  0  0  0
    7.8645   -7.3812    0.0000 N   0  0  0  0  0  0  0  0  0  0  0  0
    8.5839   -6.9724    0.0000 C   0  0  0  0  0  0  0  0  0  0  0  0
    9.2945   -7.3935    0.0000 C   0  0  0  0  0  0  0  0  0  0  0  0
   10.0118   -6.9883    0.0000 C   0  0  0  0  0  0  0  0  0  0  0  0
   10.0217   -6.1605    0.0000 N   0  0  0  0  0  0  0  0  0  0  0  0
    9.3082   -5.7397    0.0000 C   0  0  0  0  0  0  0  0  0  0  0  0
    8.5847   -6.1466    0.0000 C   0  0  0  0  0  0  0  0  0  0  0  0
    7.8705   -8.2155    0.0000 C   0  0  0  0  0  0  0  0  0  0  0  0
    8.5904   -8.6216    0.0000 C   0  0  0  0  0  0  0  0  0  0  0  0
    9.3043   -9.8618    0.0000 N   0  0  0  0  0  0  0  0  0  0  0  0
    7.1494   -8.6276    0.0000 C   0  0  0  0  0  0  0  0  0  0  0  0
    6.4349   -8.2223    0.0000 C   0  0  0  0  0  0  0  0  0  0  0  0
    7.1526   -9.4613    0.0000 C   0  0  0  0  0  0  0  0  0  0  0  0
    5.7184   -9.4618    0.0000 C   0  0  0  0  0  0  0  0  0  0  0  0
    8.5901   -9.4512    0.0000 C   0  0  0  0  0  0  0  0  0  0  0  0
    5.7197   -8.6317    0.0000 C   0  0  0  0  0  0  0  0  0  0  0  0
    6.4369   -9.8760    0.0000 C   0  0  0  0  0  0  0  0  0  0  0  0
   10.0218   -9.4450    0.0000 C   0  0  0  0  0  0  0  0  0  0  0  0
    9.2958   -8.2062    0.0000 C   0  0  0  0  0  0  0  0  0  0  0  0
   10.0154   -8.6127    0.0000 C   0  0  0  0  0  0  0  0  0  0  0  0
    5.0000   -9.8762    0.0000 Cl  0  0  0  0  0  0  0  0  0  0  0  0
   10.7319   -5.0000    0.0000 O   0  0  0  0  0  0  0  0  0  0  0  0
   12.1747   -5.7851    0.0000 C   0  0  0  0  0  0  0  0  0  0  0  0
   11.4350   -7.0102    0.0000 C   0  0  0  0  0  0  0  0  0  0  0  0
 12 20  2  0  0  0  0
 18 16  2  0  0  0  0
 20 22  1  0  0  0  0
 16 23  1  0  0  0  0
 10  3  1  0  0  0  0
  7  1  1  0  0  0  0
  7  8  1  0  0  0  0
  8  9  1  0  0  0  0
  3  4  1  0  0  0  0
  4  5  1  0  0  0  0
  4  9  1  0  0  0  0
  5  6  1  0  0  0  0
  6  7  1  0  0  0  0
  1  2  1  0  0  0  0
 13 10  1  0  0  0  0
 22 21  2  0  0  0  0
 25  2  1  0  0  0  0
 21 11  1  0  0  0  0
 19 15  2  0  0  0  0
 10 11  1  0  0  0  0
 15 13  1  0  0  0  0
 16 19  1  0  0  0  0
 11 17  2  0  0  0  0
 13 14  2  0  0  0  0
 17 12  1  0  0  0  0
 14 18  1  0  0  0  0
  1 24  2  0  0  0  0
  2 26  1  0  0  0  0
M  END
> <Molecule Name>
DNDI1449770

> <CDD Number>
CDD-1535538

> <IC50_uM>
0.17 (n=1)

$$$$

SketchEl molfile

 27 30  0  0  0  0  0  0  0  0999 V2000
    7.1305   -8.6625    0.0000 C   0  0  0  0  0  0  0  0  0  0  0  0
    7.8467   -8.2531    0.0000 C   0  0  0  0  0  0  0  0  0  0  0  0
    7.8786   -5.7875    0.0000 C   0  0  0  0  0  0  0  0  0  0  0  0
    7.8571   -7.4312    0.0000 C   0  0  0  0  0  0  0  0  0  0  0  0
    7.1337   -9.4906    0.0000 C   0  0  0  0  0  0  0  0  0  0  0  0
    8.5617   -8.6565    0.0000 C   0  0  0  0  0  0  0  0  0  0  0  0
    6.4208   -8.2599    0.0000 C   0  0  0  0  0  0  0  0  0  0  0  0
    6.4228   -9.9025    0.0000 C   0  0  0  0  0  0  0  0  0  0  0  0
    9.9772   -8.6477    0.0000 C   0  0  0  0  0  0  0  0  0  0  0  0
    9.2709   -9.8884    0.0000 N   0  0  0  0  0  0  0  0  0  0  0  0
    7.1581   -6.1927    0.0000 C   0  0  0  0  0  0  0  0  0  0  0  0
    8.5800   -6.2164    0.0000 C   0  0  0  0  0  0  0  0  0  0  0  0
    7.1437   -7.0175    0.0000 C   0  0  0  0  0  0  0  0  0  0  0  0
    8.5767   -7.0342    0.0000 C   0  0  0  0  0  0  0  0  0  0  0  0
    9.9836   -9.4744    0.0000 C   0  0  0  0  0  0  0  0  0  0  0  0
    5.7091   -9.4911    0.0000 C   0  0  0  0  0  0  0  0  0  0  0  0
    5.0000   -9.9015    0.0000 Cl  0  0  0  0  0  0  0  0  0  0  0  0
    5.7103   -8.6665    0.0000 C   0  0  0  0  0  0  0  0  0  0  0  0
    8.5615   -9.4805    0.0000 C   0  0  0  0  0  0  0  0  0  0  0  0
    9.2625   -8.2439    0.0000 C   0  0  0  0  0  0  0  0  0  0  0  0
    8.6625   -7.7846    0.0000 O   0  0  0  0  0  0  0  0  0  0  0  0
    9.2942   -5.8178    0.0000 C   0  0  0  0  0  0  0  0  0  0  0  0
    9.9965   -6.2370    0.0000 N   0  0  0  0  0  0  0  0  0  0  0  0
    9.3061   -5.0000    0.0000 O   0  0  0  0  0  0  0  0  0  0  0  0
   10.7107   -5.8384    0.0000 C   0  0  0  0  0  0  0  0  0  0  0  0
   11.5262   -5.8478    0.0000 C   0  0  0  0  0  0  0  0  0  0  0  0
   11.1277   -5.1336    0.0000 C   0  0  0  0  0  0  0  0  0  0  0  0
 15  9  1  0  0  0  0
  4 14  2  0  0  0  0
  4  2  1  0  0  0  0
  1  2  1  0  0  0  0
 16 17  1  0  0  0  0
  9 20  2  0  0  0  0
  4 13  1  0  0  0  0
 14 12  1  0  0  0  0
 12  3  2  0  0  0  0
  3 11  1  0  0  0  0
 11 13  2  0  0  0  0
  2 21  1  0  0  0  0
 20  6  1  0  0  0  0
 12 22  1  0  0  0  0
  8  5  2  0  0  0  0
 22 23  1  0  0  0  0
  2  6  1  0  0  0  0
 22 24  2  0  0  0  0
  5  1  1  0  0  0  0
 23 25  1  0  0  0  0
 16  8  1  0  0  0  0
  6 19  2  0  0  0  0
  1  7  2  0  0  0  0
 19 10  1  0  0  0  0
  7 18  1  0  0  0  0
 10 15  2  0  0  0  0
 26 25  1  0  0  0  0
 27 26  1  0  0  0  0
 25 27  1  0  0  0  0
 18 16  2  0  0  0  0
M  END
> <Molecule Name>
DNDI1449771

> <CDD Number>
CDD-1535539

> <IC50_uM>
0.18 (n=1)

$$$$

SketchEl molfile

 28 31  0  0  0  0  0  0  0  0999 V2000
    7.9041   -6.6206    0.0000 C   0  0  0  0  0  0  0  0  0  0  0  0
    7.8891   -7.4456    0.0000 N   0  0  0  0  0  0  0  0  0  0  0  0
    7.8675   -9.0952    0.0000 N   0  0  0  0  0  0  0  0  0  0  0  0
    8.6260   -6.2212    0.0000 N   0  0  0  0  0  0  0  0  0  0  0  0
    7.8571   -9.9201    0.0000 C   0  0  0  0  0  0  0  0  0  0  0  0
    8.5747  -10.3250    0.0000 C   0  0  0  0  0  0  0  0  0  0  0  0
    7.1972   -6.1952    0.0000 O   0  0  0  0  0  0  0  0  0  0  0  0
    9.2865  -11.5614    0.0000 N   0  0  0  0  0  0  0  0  0  0  0  0
    9.9953  -10.3161    0.0000 N   0  0  0  0  0  0  0  0  0  0  0  0
    8.5930   -7.8759    0.0000 C   0  0  0  0  0  0  0  0  0  0  0  0
    7.1660   -7.8522    0.0000 C   0  0  0  0  0  0  0  0  0  0  0  0
    8.5897   -8.6968    0.0000 C   0  0  0  0  0  0  0  0  0  0  0  0
    7.1515   -8.6800    0.0000 C   0  0  0  0  0  0  0  0  0  0  0  0
    7.1382  -10.3310    0.0000 C   0  0  0  0  0  0  0  0  0  0  0  0
   10.0018  -11.1458    0.0000 C   0  0  0  0  0  0  0  0  0  0  0  0
    7.1414  -11.1621    0.0000 C   0  0  0  0  0  0  0  0  0  0  0  0
    6.4259   -9.9269    0.0000 C   0  0  0  0  0  0  0  0  0  0  0  0
    5.0000  -11.5745    0.0000 Cl  0  0  0  0  0  0  0  0  0  0  0  0
    9.2780   -9.9109    0.0000 C   0  0  0  0  0  0  0  0  0  0  0  0
    8.5744  -11.1520    0.0000 C   0  0  0  0  0  0  0  0  0  0  0  0
    5.7116  -11.1626    0.0000 C   0  0  0  0  0  0  0  0  0  0  0  0
    6.4279  -11.5755    0.0000 C   0  0  0  0  0  0  0  0  0  0  0  0
    5.7129  -10.3350    0.0000 C   0  0  0  0  0  0  0  0  0  0  0  0
    9.3309   -6.6489    0.0000 C   0  0  0  0  0  0  0  0  0  0  0  0
   10.0506   -6.2529    0.0000 C   0  0  0  0  0  0  0  0  0  0  0  0
   10.0699   -5.4277    0.0000 C   0  0  0  0  0  0  0  0  0  0  0  0
    9.3632   -5.0000    0.0000 C   0  0  0  0  0  0  0  0  0  0  0  0
    8.6372   -5.3975    0.0000 C   0  0  0  0  0  0  0  0  0  0  0  0
  3  5  1  0  0  0  0
  1  4  1  0  0  0  0
 14  5  1  0  0  0  0
 21 18  1  0  0  0  0
  9 19  2  0  0  0  0
  3 13  1  0  0  0  0
 12 10  1  0  0  0  0
 10  2  1  0  0  0  0
  2 11  1  0  0  0  0
 11 13  1  0  0  0  0
 19  6  1  0  0  0  0
  2  1  1  0  0  0  0
 22 16  2  0  0  0  0
  5  6  1  0  0  0  0
  1  7  2  0  0  0  0
 16 14  1  0  0  0  0
 21 22  1  0  0  0  0
  6 20  2  0  0  0  0
 14 17  2  0  0  0  0
 20  8  1  0  0  0  0
 17 23  1  0  0  0  0
  4 24  1  0  0  0  0
  8 15  2  0  0  0  0
 23 21  2  0  0  0  0
 15  9  1  0  0  0  0
  3 12  1  0  0  0  0
  4 28  1  0  0  0  0
 24 25  1  0  0  0  0
 25 26  1  0  0  0  0
 26 27  1  0  0  0  0
 27 28  1  0  0  0  0
M  END
> <Molecule Name>
DNDI1449772

> <CDD Number>
CDD-1535540

> <IC50_uM>
0.22 (n=1)

$$$$

SketchEl molfile

 28 30  0  0  0  0  0  0  0  0999 V2000
   10.7472   -5.7911    0.0000 C   0  0  0  0  0  0  0  0  0  0  0  0
   11.4544   -6.2217    0.0000 O   0  0  0  0  0  0  0  0  0  0  0  0
    7.8651   -7.4205    0.0000 N   0  0  0  0  0  0  0  0  0  0  0  0
    8.5847   -7.0116    0.0000 C   0  0  0  0  0  0  0  0  0  0  0  0
    9.2955   -7.4329    0.0000 C   0  0  0  0  0  0  0  0  0  0  0  0
   10.0129   -7.0275    0.0000 C   0  0  0  0  0  0  0  0  0  0  0  0
   10.0229   -6.1996    0.0000 N   0  0  0  0  0  0  0  0  0  0  0  0
    9.3092   -5.7786    0.0000 C   0  0  0  0  0  0  0  0  0  0  0  0
    8.5855   -6.1856    0.0000 C   0  0  0  0  0  0  0  0  0  0  0  0
    7.8711   -8.2550    0.0000 C   0  0  0  0  0  0  0  0  0  0  0  0
    8.5912   -8.6612    0.0000 C   0  0  0  0  0  0  0  0  0  0  0  0
    9.3053   -9.9017    0.0000 N   0  0  0  0  0  0  0  0  0  0  0  0
    7.1499   -8.6672    0.0000 C   0  0  0  0  0  0  0  0  0  0  0  0
    6.4352   -8.2618    0.0000 C   0  0  0  0  0  0  0  0  0  0  0  0
    7.1531   -9.5011    0.0000 C   0  0  0  0  0  0  0  0  0  0  0  0
    5.7186   -9.5016    0.0000 C   0  0  0  0  0  0  0  0  0  0  0  0
    8.5909   -9.4910    0.0000 C   0  0  0  0  0  0  0  0  0  0  0  0
    5.7199   -8.6713    0.0000 C   0  0  0  0  0  0  0  0  0  0  0  0
    6.4373   -9.9159    0.0000 C   0  0  0  0  0  0  0  0  0  0  0  0
   10.0230   -9.4848    0.0000 C   0  0  0  0  0  0  0  0  0  0  0  0
    9.2968   -8.2458    0.0000 C   0  0  0  0  0  0  0  0  0  0  0  0
   10.0166   -8.6523    0.0000 C   0  0  0  0  0  0  0  0  0  0  0  0
    5.0000   -9.9161    0.0000 Cl  0  0  0  0  0  0  0  0  0  0  0  0
   10.7332   -5.0388    0.0000 O   0  0  0  0  0  0  0  0  0  0  0  0
   12.1764   -5.8240    0.0000 C   0  0  0  0  0  0  0  0  0  0  0  0
   12.8817   -6.2504    0.0000 C   0  0  0  0  0  0  0  0  0  0  0  0
   12.1930   -5.0000    0.0000 C   0  0  0  0  0  0  0  0  0  0  0  0
   12.3736   -6.6243    0.0000 C   0  0  0  0  0  0  0  0  0  0  0  0
 20 22  1  0  0  0  0
 16 23  1  0  0  0  0
 10  3  1  0  0  0  0
  7  1  1  0  0  0  0
  7  8  1  0  0  0  0
  8  9  1  0  0  0  0
  3  4  1  0  0  0  0
  4  5  1  0  0  0  0
  4  9  1  0  0  0  0
  5  6  1  0  0  0  0
  6  7  1  0  0  0  0
  1  2  1  0  0  0  0
 13 10  1  0  0  0  0
 22 21  2  0  0  0  0
 25  2  1  0  0  0  0
 21 11  1  0  0  0  0
 19 15  2  0  0  0  0
 10 11  1  0  0  0  0
 15 13  1  0  0  0  0
 16 19  1  0  0  0  0
 11 17  2  0  0  0  0
 13 14  2  0  0  0  0
 17 12  1  0  0  0  0
 14 18  1  0  0  0  0
  1 24  2  0  0  0  0
 25 26  1  0  0  0  0
 12 20  2  0  0  0  0
 25 27  1  0  0  0  0
 18 16  2  0  0  0  0
 25 28  1  0  0  0  0
M  END
> <Molecule Name>
DNDI1449868

> <CDD Number>
CDD-1535541

> <IC50_uM>
0.024 (n=1)

$$$$

SketchEl molfile

 28 30  0  0  0  0  0  0  0  0999 V2000
   10.7472   -5.7911    0.0000 C   0  0  0  0  0  0  0  0  0  0  0  0
   11.4544   -6.2217    0.0000 C   0  0  0  0  0  0  0  0  0  0  0  0
    7.8651   -7.4205    0.0000 N   0  0  0  0  0  0  0  0  0  0  0  0
    8.5847   -7.0116    0.0000 C   0  0  0  0  0  0  0  0  0  0  0  0
    9.2955   -7.4329    0.0000 C   0  0  0  0  0  0  0  0  0  0  0  0
   10.0129   -7.0275    0.0000 C   0  0  0  0  0  0  0  0  0  0  0  0
   10.0229   -6.1996    0.0000 N   0  0  0  0  0  0  0  0  0  0  0  0
    9.3092   -5.7786    0.0000 C   0  0  0  0  0  0  0  0  0  0  0  0
    8.5855   -6.1856    0.0000 C   0  0  0  0  0  0  0  0  0  0  0  0
    7.8711   -8.2550    0.0000 C   0  0  0  0  0  0  0  0  0  0  0  0
    8.5912   -8.6612    0.0000 C   0  0  0  0  0  0  0  0  0  0  0  0
    9.3053   -9.9017    0.0000 N   0  0  0  0  0  0  0  0  0  0  0  0
    7.1499   -8.6672    0.0000 C   0  0  0  0  0  0  0  0  0  0  0  0
    6.4352   -8.2618    0.0000 C   0  0  0  0  0  0  0  0  0  0  0  0
    7.1531   -9.5011    0.0000 C   0  0  0  0  0  0  0  0  0  0  0  0
    5.7186   -9.5016    0.0000 C   0  0  0  0  0  0  0  0  0  0  0  0
    8.5909   -9.4910    0.0000 C   0  0  0  0  0  0  0  0  0  0  0  0
    5.7199   -8.6713    0.0000 C   0  0  0  0  0  0  0  0  0  0  0  0
    6.4373   -9.9159    0.0000 C   0  0  0  0  0  0  0  0  0  0  0  0
   10.0230   -9.4848    0.0000 C   0  0  0  0  0  0  0  0  0  0  0  0
    9.2968   -8.2458    0.0000 C   0  0  0  0  0  0  0  0  0  0  0  0
   10.0166   -8.6523    0.0000 C   0  0  0  0  0  0  0  0  0  0  0  0
    5.0000   -9.9161    0.0000 Cl  0  0  0  0  0  0  0  0  0  0  0  0
   10.7332   -5.0388    0.0000 O   0  0  0  0  0  0  0  0  0  0  0  0
   12.1764   -5.8240    0.0000 C   0  0  0  0  0  0  0  0  0  0  0  0
   12.8817   -6.2504    0.0000 C   0  0  0  0  0  0  0  0  0  0  0  0
   12.1930   -5.0000    0.0000 C   0  0  0  0  0  0  0  0  0  0  0  0
   12.3736   -6.6243    0.0000 C   0  0  0  0  0  0  0  0  0  0  0  0
 20 22  1  0  0  0  0
 16 23  1  0  0  0  0
 10  3  1  0  0  0  0
  7  1  1  0  0  0  0
  7  8  1  0  0  0  0
  8  9  1  0  0  0  0
  3  4  1  0  0  0  0
  4  5  1  0  0  0  0
  4  9  1  0  0  0  0
  5  6  1  0  0  0  0
  6  7  1  0  0  0  0
  1  2  1  0  0  0  0
 13 10  1  0  0  0  0
 22 21  2  0  0  0  0
 25  2  1  0  0  0  0
 21 11  1  0  0  0  0
 19 15  2  0  0  0  0
 10 11  1  0  0  0  0
 15 13  1  0  0  0  0
 16 19  1  0  0  0  0
 11 17  2  0  0  0  0
 13 14  2  0  0  0  0
 17 12  1  0  0  0  0
 14 18  1  0  0  0  0
  1 24  2  0  0  0  0
 25 26  1  0  0  0  0
 12 20  2  0  0  0  0
 25 27  1  0  0  0  0
 18 16  2  0  0  0  0
 25 28  1  0  0  0  0
M  END
> <Molecule Name>
DNDI1449869

> <CDD Number>
CDD-1535542

> <IC50_uM>
0.031 (n=1)

$$$$

SketchEl molfile

 28 30  0  0  0  0  0  0  0  0999 V2000
   10.7454   -5.7909    0.0000 C   0  0  0  0  0  0  0  0  0  0  0  0
   11.4525   -6.2213    0.0000 N   0  0  0  0  0  0  0  0  0  0  0  0
    7.8643   -7.4197    0.0000 N   0  0  0  0  0  0  0  0  0  0  0  0
    8.5836   -7.0110    0.0000 C   0  0  0  0  0  0  0  0  0  0  0  0
    9.2942   -7.4321    0.0000 C   0  0  0  0  0  0  0  0  0  0  0  0
   10.0114   -7.0269    0.0000 C   0  0  0  0  0  0  0  0  0  0  0  0
   10.0214   -6.1992    0.0000 N   0  0  0  0  0  0  0  0  0  0  0  0
    9.3079   -5.7784    0.0000 C   0  0  0  0  0  0  0  0  0  0  0  0
    8.5844   -6.1852    0.0000 C   0  0  0  0  0  0  0  0  0  0  0  0
    7.8703   -8.2540    0.0000 C   0  0  0  0  0  0  0  0  0  0  0  0
    8.5901   -8.6601    0.0000 C   0  0  0  0  0  0  0  0  0  0  0  0
    9.3040   -9.9002    0.0000 N   0  0  0  0  0  0  0  0  0  0  0  0
    7.1493   -8.6661    0.0000 C   0  0  0  0  0  0  0  0  0  0  0  0
    6.4348   -8.2608    0.0000 C   0  0  0  0  0  0  0  0  0  0  0  0
    7.1525   -9.4997    0.0000 C   0  0  0  0  0  0  0  0  0  0  0  0
    5.7184   -9.5003    0.0000 C   0  0  0  0  0  0  0  0  0  0  0  0
    8.5898   -9.4896    0.0000 C   0  0  0  0  0  0  0  0  0  0  0  0
    5.7196   -8.6702    0.0000 C   0  0  0  0  0  0  0  0  0  0  0  0
    6.4368   -9.9144    0.0000 C   0  0  0  0  0  0  0  0  0  0  0  0
   10.0215   -9.4834    0.0000 C   0  0  0  0  0  0  0  0  0  0  0  0
    9.2955   -8.2448    0.0000 C   0  0  0  0  0  0  0  0  0  0  0  0
   10.0150   -8.6512    0.0000 C   0  0  0  0  0  0  0  0  0  0  0  0
    5.0000   -9.9146    0.0000 Cl  0  0  0  0  0  0  0  0  0  0  0  0
   10.7314   -5.0388    0.0000 O   0  0  0  0  0  0  0  0  0  0  0  0
   12.1742   -5.8238    0.0000 C   0  0  0  0  0  0  0  0  0  0  0  0
   12.1908   -5.0000    0.0000 C   0  0  0  0  0  0  0  0  0  0  0  0
   11.4345   -7.0489    0.0000 C   0  0  0  0  0  0  0  0  0  0  0  0
   12.1422   -7.4782    0.0000 C   0  0  0  0  0  0  0  0  0  0  0  0
 16 23  1  0  0  0  0
 10  3  1  0  0  0  0
  7  1  1  0  0  0  0
  7  8  1  0  0  0  0
  8  9  1  0  0  0  0
  3  4  1  0  0  0  0
  4  5  1  0  0  0  0
  4  9  1  0  0  0  0
  5  6  1  0  0  0  0
  6  7  1  0  0  0  0
  1  2  1  0  0  0  0
 13 10  1  0  0  0  0
 22 21  2  0  0  0  0
 25  2  1  0  0  0  0
 21 11  1  0  0  0  0
 19 15  2  0  0  0  0
 10 11  1  0  0  0  0
 15 13  1  0  0  0  0
 16 19  1  0  0  0  0
 11 17  2  0  0  0  0
 13 14  2  0  0  0  0
 17 12  1  0  0  0  0
 14 18  1  0  0  0  0
  1 24  2  0  0  0  0
 12 20  2  0  0  0  0
 25 26  1  0  0  0  0
 18 16  2  0  0  0  0
  2 27  1  0  0  0  0
 20 22  1  0  0  0  0
 27 28  1  0  0  0  0
M  END
> <Molecule Name>
DNDI1449870

> <CDD Number>
CDD-1535543

> <IC50_uM>
0.036 (n=1)

$$$$

SketchEl molfile

 30 33  0  0  0  0  0  0  0  0999 V2000
   10.7484   -6.1872    0.0000 C   0  0  0  0  0  0  0  0  0  0  0  0
   11.4557   -6.6178    0.0000 O   0  0  0  0  0  0  0  0  0  0  0  0
    7.8657   -7.8169    0.0000 N   0  0  0  0  0  0  0  0  0  0  0  0
    8.5854   -7.4079    0.0000 C   0  0  0  0  0  0  0  0  0  0  0  0
    9.2964   -7.8292    0.0000 C   0  0  0  0  0  0  0  0  0  0  0  0
   10.0139   -7.4238    0.0000 C   0  0  0  0  0  0  0  0  0  0  0  0
   10.0239   -6.5957    0.0000 N   0  0  0  0  0  0  0  0  0  0  0  0
    9.3100   -6.1747    0.0000 C   0  0  0  0  0  0  0  0  0  0  0  0
    8.5862   -6.5817    0.0000 C   0  0  0  0  0  0  0  0  0  0  0  0
    7.8717   -8.6516    0.0000 C   0  0  0  0  0  0  0  0  0  0  0  0
    8.5919   -9.0579    0.0000 C   0  0  0  0  0  0  0  0  0  0  0  0
    9.3062  -10.2986    0.0000 N   0  0  0  0  0  0  0  0  0  0  0  0
    7.1504   -9.0639    0.0000 C   0  0  0  0  0  0  0  0  0  0  0  0
    6.4355   -8.6584    0.0000 C   0  0  0  0  0  0  0  0  0  0  0  0
    7.1536   -9.8979    0.0000 C   0  0  0  0  0  0  0  0  0  0  0  0
    5.7187   -9.8985    0.0000 C   0  0  0  0  0  0  0  0  0  0  0  0
    8.5916   -9.8878    0.0000 C   0  0  0  0  0  0  0  0  0  0  0  0
    5.7200   -9.0679    0.0000 C   0  0  0  0  0  0  0  0  0  0  0  0
    6.4376  -10.3128    0.0000 C   0  0  0  0  0  0  0  0  0  0  0  0
   10.0240   -9.8816    0.0000 C   0  0  0  0  0  0  0  0  0  0  0  0
    9.2977   -8.6423    0.0000 C   0  0  0  0  0  0  0  0  0  0  0  0
   10.0176   -9.0490    0.0000 C   0  0  0  0  0  0  0  0  0  0  0  0
    5.0000  -10.3130    0.0000 Cl  0  0  0  0  0  0  0  0  0  0  0  0
   10.7343   -5.4347    0.0000 O   0  0  0  0  0  0  0  0  0  0  0  0
   12.1778   -6.2201    0.0000 C   0  0  0  0  0  0  0  0  0  0  0  0
   12.8801   -6.6486    0.0000 C   0  0  0  0  0  0  0  0  0  0  0  0
   13.6016   -6.2515    0.0000 C   0  0  0  0  0  0  0  0  0  0  0  0
   13.6187   -5.4264    0.0000 C   0  0  0  0  0  0  0  0  0  0  0  0
   12.9082   -5.0000    0.0000 C   0  0  0  0  0  0  0  0  0  0  0  0
   12.1895   -5.3995    0.0000 C   0  0  0  0  0  0  0  0  0  0  0  0
  8  9  1  0  0  0  0
  3  4  1  0  0  0  0
  4  5  1  0  0  0  0
  4  9  1  0  0  0  0
  5  6  1  0  0  0  0
  6  7  1  0  0  0  0
  1  2  1  0  0  0  0
 13 10  1  0  0  0  0
 22 21  2  0  0  0  0
 25  2  1  0  0  0  0
 21 11  1  0  0  0  0
 19 15  2  0  0  0  0
 10 11  1  0  0  0  0
 15 13  1  0  0  0  0
 16 19  1  0  0  0  0
 11 17  2  0  0  0  0
 13 14  2  0  0  0  0
 17 12  1  0  0  0  0
 14 18  1  0  0  0  0
  1 24  2  0  0  0  0
 12 20  2  0  0  0  0
 18 16  2  0  0  0  0
 20 22  1  0  0  0  0
 25 26  2  0  0  0  0
 16 23  1  0  0  0  0
 26 27  1  0  0  0  0
 10  3  1  0  0  0  0
 27 28  2  0  0  0  0
  7  1  1  0  0  0  0
 28 29  1  0  0  0  0
  7  8  1  0  0  0  0
 29 30  2  0  0  0  0
 30 25  1  0  0  0  0
M  END
> <Molecule Name>
DNDI1449871

> <CDD Number>
CDD-1535544

> <IC50_uM>
0.02 (n=1)

$$$$

SketchEl molfile

 29 32  0  0  0  0  0  0  0  0999 V2000
   10.7435   -5.7519    0.0000 C   0  0  0  0  0  0  0  0  0  0  0  0
   11.4502   -6.1822    0.0000 N   0  0  0  0  0  0  0  0  0  0  0  0
    7.8633   -7.3802    0.0000 N   0  0  0  0  0  0  0  0  0  0  0  0
    8.5824   -6.9716    0.0000 C   0  0  0  0  0  0  0  0  0  0  0  0
    9.2927   -7.3926    0.0000 C   0  0  0  0  0  0  0  0  0  0  0  0
   10.0097   -6.9875    0.0000 C   0  0  0  0  0  0  0  0  0  0  0  0
   10.0196   -6.1601    0.0000 N   0  0  0  0  0  0  0  0  0  0  0  0
    9.3064   -5.7394    0.0000 C   0  0  0  0  0  0  0  0  0  0  0  0
    8.5832   -6.1461    0.0000 C   0  0  0  0  0  0  0  0  0  0  0  0
    7.8693   -8.2142    0.0000 C   0  0  0  0  0  0  0  0  0  0  0  0
    8.5889   -8.6201    0.0000 C   0  0  0  0  0  0  0  0  0  0  0  0
    9.3026   -9.8598    0.0000 N   0  0  0  0  0  0  0  0  0  0  0  0
    7.1485   -8.6261    0.0000 C   0  0  0  0  0  0  0  0  0  0  0  0
    6.4343   -8.2210    0.0000 C   0  0  0  0  0  0  0  0  0  0  0  0
    7.1517   -9.4595    0.0000 C   0  0  0  0  0  0  0  0  0  0  0  0
    5.7181   -9.4600    0.0000 C   0  0  0  0  0  0  0  0  0  0  0  0
    8.5886   -9.4493    0.0000 C   0  0  0  0  0  0  0  0  0  0  0  0
    5.7194   -8.6302    0.0000 C   0  0  0  0  0  0  0  0  0  0  0  0
    6.4363   -9.8740    0.0000 C   0  0  0  0  0  0  0  0  0  0  0  0
   10.0198   -9.4432    0.0000 C   0  0  0  0  0  0  0  0  0  0  0  0
    9.2940   -8.2049    0.0000 C   0  0  0  0  0  0  0  0  0  0  0  0
   10.0133   -8.6113    0.0000 C   0  0  0  0  0  0  0  0  0  0  0  0
    5.0000   -9.8742    0.0000 Cl  0  0  0  0  0  0  0  0  0  0  0  0
   10.7295   -5.0000    0.0000 O   0  0  0  0  0  0  0  0  0  0  0  0
   11.4250   -7.0093    0.0000 C   0  0  0  0  0  0  0  0  0  0  0  0
   12.1276   -7.4394    0.0000 C   0  0  0  0  0  0  0  0  0  0  0  0
   12.8560   -7.0460    0.0000 C   0  0  0  0  0  0  0  0  0  0  0  0
   12.8773   -6.2179    0.0000 C   0  0  0  0  0  0  0  0  0  0  0  0
   12.1701   -5.7831    0.0000 C   0  0  0  0  0  0  0  0  0  0  0  0
  5  6  1  0  0  0  0
  6  7  1  0  0  0  0
  1  2  1  0  0  0  0
 13 10  1  0  0  0  0
 22 21  2  0  0  0  0
 21 11  1  0  0  0  0
 19 15  2  0  0  0  0
 10 11  1  0  0  0  0
 15 13  1  0  0  0  0
 16 19  1  0  0  0  0
 11 17  2  0  0  0  0
 13 14  2  0  0  0  0
 17 12  1  0  0  0  0
 14 18  1  0  0  0  0
  1 24  2  0  0  0  0
 12 20  2  0  0  0  0
 18 16  2  0  0  0  0
 20 22  1  0  0  0  0
 16 23  1  0  0  0  0
 10  3  1  0  0  0  0
  7  1  1  0  0  0  0
  7  8  1  0  0  0  0
  2 25  1  0  0  0  0
  8  9  1  0  0  0  0
  3  4  1  0  0  0  0
  4  5  1  0  0  0  0
  4  9  1  0  0  0  0
  2 29  1  0  0  0  0
 25 26  1  0  0  0  0
 26 27  1  0  0  0  0
 27 28  1  0  0  0  0
 28 29  1  0  0  0  0
M  END
> <Molecule Name>
DNDI1449872

> <CDD Number>
CDD-1535545

> <IC50_uM>
0.058 (n=1)

$$$$

SketchEl molfile

 30 33  0  0  0  0  0  0  0  0999 V2000
    7.9045   -6.5954    0.0000 C   0  0  0  0  0  0  0  0  0  0  0  0
    7.8894   -7.4205    0.0000 N   0  0  0  0  0  0  0  0  0  0  0  0
    7.8678   -9.0703    0.0000 N   0  0  0  0  0  0  0  0  0  0  0  0
    8.6265   -6.1959    0.0000 O   0  0  0  0  0  0  0  0  0  0  0  0
    7.8574   -9.8953    0.0000 C   0  0  0  0  0  0  0  0  0  0  0  0
    8.5751  -10.3002    0.0000 C   0  0  0  0  0  0  0  0  0  0  0  0
    7.1975   -6.1699    0.0000 O   0  0  0  0  0  0  0  0  0  0  0  0
    9.2870  -11.5368    0.0000 N   0  0  0  0  0  0  0  0  0  0  0  0
    9.9959  -10.2914    0.0000 N   0  0  0  0  0  0  0  0  0  0  0  0
    8.5935   -7.8509    0.0000 C   0  0  0  0  0  0  0  0  0  0  0  0
    7.1663   -7.8272    0.0000 C   0  0  0  0  0  0  0  0  0  0  0  0
    8.5902   -8.6719    0.0000 C   0  0  0  0  0  0  0  0  0  0  0  0
    7.1517   -8.6551    0.0000 C   0  0  0  0  0  0  0  0  0  0  0  0
    7.1385  -10.3062    0.0000 C   0  0  0  0  0  0  0  0  0  0  0  0
   10.0024  -11.1212    0.0000 C   0  0  0  0  0  0  0  0  0  0  0  0
    7.1417  -11.1374    0.0000 C   0  0  0  0  0  0  0  0  0  0  0  0
    6.4261   -9.9021    0.0000 C   0  0  0  0  0  0  0  0  0  0  0  0
    5.0000  -11.5499    0.0000 Cl  0  0  0  0  0  0  0  0  0  0  0  0
    9.2785   -9.8861    0.0000 C   0  0  0  0  0  0  0  0  0  0  0  0
    8.5748  -11.1273    0.0000 C   0  0  0  0  0  0  0  0  0  0  0  0
    5.7117  -11.1380    0.0000 C   0  0  0  0  0  0  0  0  0  0  0  0
    6.4281  -11.5509    0.0000 C   0  0  0  0  0  0  0  0  0  0  0  0
    5.7130  -10.3103    0.0000 C   0  0  0  0  0  0  0  0  0  0  0  0
    9.3335   -6.6215    0.0000 C   0  0  0  0  0  0  0  0  0  0  0  0
   10.0555   -6.2220    0.0000 C   0  0  0  0  0  0  0  0  0  0  0  0
   10.7574   -6.6502    0.0000 C   0  0  0  0  0  0  0  0  0  0  0  0
   11.4789   -6.2514    0.0000 C   0  0  0  0  0  0  0  0  0  0  0  0
   11.4944   -5.4254    0.0000 C   0  0  0  0  0  0  0  0  0  0  0  0
   10.7824   -5.0000    0.0000 C   0  0  0  0  0  0  0  0  0  0  0  0
   10.0638   -5.4012    0.0000 C   0  0  0  0  0  0  0  0  0  0  0  0
 12 10  1  0  0  0  0
 10  2  1  0  0  0  0
  2 11  1  0  0  0  0
 11 13  1  0  0  0  0
 19  6  1  0  0  0  0
  2  1  1  0  0  0  0
 22 16  2  0  0  0  0
  5  6  1  0  0  0  0
  1  7  2  0  0  0  0
 16 14  1  0  0  0  0
 21 22  1  0  0  0  0
  6 20  2  0  0  0  0
 14 17  2  0  0  0  0
 20  8  1  0  0  0  0
 17 23  1  0  0  0  0
  8 15  2  0  0  0  0
 23 21  2  0  0  0  0
 15  9  1  0  0  0  0
  3 12  1  0  0  0  0
  4 24  1  0  0  0  0
  3  5  1  0  0  0  0
 24 25  1  0  0  0  0
  1  4  1  0  0  0  0
 25 26  2  0  0  0  0
 14  5  1  0  0  0  0
 26 27  1  0  0  0  0
 21 18  1  0  0  0  0
 27 28  2  0  0  0  0
  9 19  2  0  0  0  0
 28 29  1  0  0  0  0
  3 13  1  0  0  0  0
 29 30  2  0  0  0  0
 30 25  1  0  0  0  0
M  END
> <Molecule Name>
DNDI1449873

> <CDD Number>
CDD-1535546

> <IC50_uM>
0.15 (n=1)

$$$$

SketchEl molfile

 28 31  0  0  0  0  0  0  0  0999 V2000
    7.9041   -5.4255    0.0000 C   0  0  0  0  0  0  0  0  0  0  0  0
    7.8891   -6.2505    0.0000 N   0  0  0  0  0  0  0  0  0  0  0  0
    7.8675   -7.9001    0.0000 N   0  0  0  0  0  0  0  0  0  0  0  0
    8.6260   -5.0261    0.0000 N   0  0  0  0  0  0  0  0  0  0  0  0
    7.8571   -8.7250    0.0000 C   0  0  0  0  0  0  0  0  0  0  0  0
    8.5747   -9.1299    0.0000 C   0  0  0  0  0  0  0  0  0  0  0  0
    7.1972   -5.0000    0.0000 O   0  0  0  0  0  0  0  0  0  0  0  0
    9.2865  -10.3663    0.0000 N   0  0  0  0  0  0  0  0  0  0  0  0
    9.9954   -9.1210    0.0000 N   0  0  0  0  0  0  0  0  0  0  0  0
    8.5930   -6.6808    0.0000 C   0  0  0  0  0  0  0  0  0  0  0  0
    7.1660   -6.6571    0.0000 C   0  0  0  0  0  0  0  0  0  0  0  0
    8.5897   -7.5017    0.0000 C   0  0  0  0  0  0  0  0  0  0  0  0
    7.1515   -7.4849    0.0000 C   0  0  0  0  0  0  0  0  0  0  0  0
    7.1382   -9.1359    0.0000 C   0  0  0  0  0  0  0  0  0  0  0  0
   10.0018   -9.9507    0.0000 C   0  0  0  0  0  0  0  0  0  0  0  0
    7.1414   -9.9670    0.0000 C   0  0  0  0  0  0  0  0  0  0  0  0
    6.4259   -8.7318    0.0000 C   0  0  0  0  0  0  0  0  0  0  0  0
    5.0000  -10.3794    0.0000 Cl  0  0  0  0  0  0  0  0  0  0  0  0
    9.2780   -8.7158    0.0000 C   0  0  0  0  0  0  0  0  0  0  0  0
    8.5744   -9.9569    0.0000 C   0  0  0  0  0  0  0  0  0  0  0  0
    5.7116   -9.9675    0.0000 C   0  0  0  0  0  0  0  0  0  0  0  0
    6.4279  -10.3804    0.0000 C   0  0  0  0  0  0  0  0  0  0  0  0
    5.7129   -9.1399    0.0000 C   0  0  0  0  0  0  0  0  0  0  0  0
    9.3330   -5.4515    0.0000 C   0  0  0  0  0  0  0  0  0  0  0  0
    9.4046   -6.2700    0.0000 C   0  0  0  0  0  0  0  0  0  0  0  0
   10.2084   -6.4562    0.0000 C   0  0  0  0  0  0  0  0  0  0  0  0
   10.6340   -5.7493    0.0000 C   0  0  0  0  0  0  0  0  0  0  0  0
   10.0930   -5.1263    0.0000 C   0  0  0  0  0  0  0  0  0  0  0  0
 19  6  1  0  0  0  0
  2  1  1  0  0  0  0
 22 16  2  0  0  0  0
  5  6  1  0  0  0  0
  1  7  2  0  0  0  0
 16 14  1  0  0  0  0
 21 22  1  0  0  0  0
  6 20  2  0  0  0  0
 14 17  2  0  0  0  0
 20  8  1  0  0  0  0
 17 23  1  0  0  0  0
  8 15  2  0  0  0  0
 23 21  2  0  0  0  0
 15  9  1  0  0  0  0
  3 12  1  0  0  0  0
  3  5  1  0  0  0  0
  1  4  1  0  0  0  0
 14  5  1  0  0  0  0
 21 18  1  0  0  0  0
  9 19  2  0  0  0  0
  3 13  1  0  0  0  0
  4 24  1  0  0  0  0
 24 25  1  0  0  0  0
 12 10  1  0  0  0  0
 10  2  1  0  0  0  0
  2 11  1  0  0  0  0
 11 13  1  0  0  0  0
 25 26  1  0  0  0  0
 26 27  1  0  0  0  0
 27 28  1  0  0  0  0
 28 24  1  0  0  0  0
M  END
> <Molecule Name>
DNDI1449874

> <CDD Number>
CDD-1535547

> <IC50_uM>
0.23 (n=1)

$$$$

SketchEl molfile

 31 34  0  0  0  0  0  0  0  0999 V2000
    7.9039   -5.4254    0.0000 C   0  0  0  0  0  0  0  0  0  0  0  0
    7.8889   -6.2503    0.0000 N   0  0  0  0  0  0  0  0  0  0  0  0
    7.8673   -7.8999    0.0000 N   0  0  0  0  0  0  0  0  0  0  0  0
    8.6258   -5.0260    0.0000 N   0  0  0  0  0  0  0  0  0  0  0  0
    7.8569   -8.7247    0.0000 C   0  0  0  0  0  0  0  0  0  0  0  0
    8.5745   -9.1296    0.0000 C   0  0  0  0  0  0  0  0  0  0  0  0
    7.1971   -5.0000    0.0000 O   0  0  0  0  0  0  0  0  0  0  0  0
    9.2862  -10.3659    0.0000 N   0  0  0  0  0  0  0  0  0  0  0  0
    9.9951   -9.1207    0.0000 N   0  0  0  0  0  0  0  0  0  0  0  0
    8.5928   -6.6807    0.0000 C   0  0  0  0  0  0  0  0  0  0  0  0
    7.1659   -6.6570    0.0000 C   0  0  0  0  0  0  0  0  0  0  0  0
    8.5895   -7.5015    0.0000 C   0  0  0  0  0  0  0  0  0  0  0  0
    7.1514   -7.4847    0.0000 C   0  0  0  0  0  0  0  0  0  0  0  0
    7.1381   -9.1355    0.0000 C   0  0  0  0  0  0  0  0  0  0  0  0
   10.0015   -9.9503    0.0000 C   0  0  0  0  0  0  0  0  0  0  0  0
    7.1413   -9.9666    0.0000 C   0  0  0  0  0  0  0  0  0  0  0  0
    6.4258   -8.7315    0.0000 C   0  0  0  0  0  0  0  0  0  0  0  0
    5.0000  -10.3790    0.0000 Cl  0  0  0  0  0  0  0  0  0  0  0  0
    9.2778   -8.7155    0.0000 C   0  0  0  0  0  0  0  0  0  0  0  0
    8.5742   -9.9565    0.0000 C   0  0  0  0  0  0  0  0  0  0  0  0
    5.7116   -9.9671    0.0000 C   0  0  0  0  0  0  0  0  0  0  0  0
    6.4279  -10.3800    0.0000 C   0  0  0  0  0  0  0  0  0  0  0  0
    5.7129   -9.1396    0.0000 C   0  0  0  0  0  0  0  0  0  0  0  0
    9.3327   -5.4514    0.0000 C   0  0  0  0  0  0  0  0  0  0  0  0
    9.3159   -6.2767    0.0000 C   0  0  0  0  0  0  0  0  0  0  0  0
   10.0220   -6.7021    0.0000 C   0  0  0  0  0  0  0  0  0  0  0  0
   10.7448   -6.3026    0.0000 C   0  0  0  0  0  0  0  0  0  0  0  0
   10.7573   -5.4734    0.0000 C   0  0  0  0  0  0  0  0  0  0  0  0
   10.0506   -5.0518    0.0000 C   0  0  0  0  0  0  0  0  0  0  0  0
   11.4530   -6.7276    0.0000 Cl  0  0  0  0  0  0  0  0  0  0  0  0
    7.8565  -10.3769    0.0000 F   0  0  0  0  0  0  0  0  0  0  0  0
 21 22  1  0  0  0  0
  6 20  2  0  0  0  0
 14 17  2  0  0  0  0
 20  8  1  0  0  0  0
 17 23  1  0  0  0  0
  8 15  2  0  0  0  0
 23 21  2  0  0  0  0
 15  9  1  0  0  0  0
  3 12  1  0  0  0  0
  3  5  1  0  0  0  0
  1  4  1  0  0  0  0
 14  5  1  0  0  0  0
 21 18  1  0  0  0  0
  9 19  2  0  0  0  0
  3 13  1  0  0  0  0
  4 24  1  0  0  0  0
 12 10  1  0  0  0  0
 10  2  1  0  0  0  0
  2 11  1  0  0  0  0
 11 13  1  0  0  0  0
 24 25  2  0  0  0  0
 19  6  1  0  0  0  0
 25 26  1  0  0  0  0
  2  1  1  0  0  0  0
 26 27  2  0  0  0  0
 22 16  2  0  0  0  0
 27 28  1  0  0  0  0
  5  6  1  0  0  0  0
 28 29  2  0  0  0  0
 29 24  1  0  0  0  0
  1  7  2  0  0  0  0
 27 30  1  0  0  0  0
 16 14  1  0  0  0  0
 16 31  1  0  0  0  0
M  END
> <Molecule Name>
DNDI1449875

> <CDD Number>
CDD-1535548

> <IC50_uM>
0.01 (n=1)

$$$$

SketchEl molfile

 28 30  0  0  0  0  0  0  0  0999 V2000
    7.9043   -5.4255    0.0000 C   0  0  0  0  0  0  0  0  0  0  0  0
    7.8893   -6.2505    0.0000 N   0  0  0  0  0  0  0  0  0  0  0  0
    7.8677   -7.9003    0.0000 N   0  0  0  0  0  0  0  0  0  0  0  0
    8.6263   -5.0260    0.0000 N   0  0  0  0  0  0  0  0  0  0  0  0
    7.8573   -8.7252    0.0000 C   0  0  0  0  0  0  0  0  0  0  0  0
    8.5750   -9.1301    0.0000 C   0  0  0  0  0  0  0  0  0  0  0  0
    7.1974   -5.0000    0.0000 O   0  0  0  0  0  0  0  0  0  0  0  0
    9.2868  -10.3666    0.0000 N   0  0  0  0  0  0  0  0  0  0  0  0
    9.9957   -9.1212    0.0000 N   0  0  0  0  0  0  0  0  0  0  0  0
    8.5933   -6.6809    0.0000 C   0  0  0  0  0  0  0  0  0  0  0  0
    7.1662   -6.6572    0.0000 C   0  0  0  0  0  0  0  0  0  0  0  0
    8.5900   -7.5018    0.0000 C   0  0  0  0  0  0  0  0  0  0  0  0
    7.1516   -7.4850    0.0000 C   0  0  0  0  0  0  0  0  0  0  0  0
    7.1384   -9.1361    0.0000 C   0  0  0  0  0  0  0  0  0  0  0  0
   10.0021   -9.9510    0.0000 C   0  0  0  0  0  0  0  0  0  0  0  0
    7.1416   -9.9672    0.0000 C   0  0  0  0  0  0  0  0  0  0  0  0
    6.4260   -8.7320    0.0000 C   0  0  0  0  0  0  0  0  0  0  0  0
    5.0000  -10.3797    0.0000 Cl  0  0  0  0  0  0  0  0  0  0  0  0
    9.2783   -8.7160    0.0000 C   0  0  0  0  0  0  0  0  0  0  0  0
    8.5747   -9.9571    0.0000 C   0  0  0  0  0  0  0  0  0  0  0  0
    5.7117   -9.9678    0.0000 C   0  0  0  0  0  0  0  0  0  0  0  0
    6.4280  -10.3807    0.0000 C   0  0  0  0  0  0  0  0  0  0  0  0
    5.7130   -9.1401    0.0000 C   0  0  0  0  0  0  0  0  0  0  0  0
    9.3333   -5.4515    0.0000 C   0  0  0  0  0  0  0  0  0  0  0  0
    9.3165   -6.2769    0.0000 C   0  0  0  0  0  0  0  0  0  0  0  0
   10.0513   -5.0518    0.0000 C   0  0  0  0  0  0  0  0  0  0  0  0
    7.8569  -10.3776    0.0000 F   0  0  0  0  0  0  0  0  0  0  0  0
   10.1263   -5.6793    0.0000 C   0  0  0  0  0  0  0  0  0  0  0  0
 21 22  1  0  0  0  0
  6 20  2  0  0  0  0
 14 17  2  0  0  0  0
 20  8  1  0  0  0  0
 17 23  1  0  0  0  0
  8 15  2  0  0  0  0
 23 21  2  0  0  0  0
 15  9  1  0  0  0  0
  3 12  1  0  0  0  0
  3  5  1  0  0  0  0
  1  4  1  0  0  0  0
 14  5  1  0  0  0  0
 21 18  1  0  0  0  0
  9 19  2  0  0  0  0
  3 13  1  0  0  0  0
  4 24  1  0  0  0  0
 12 10  1  0  0  0  0
 10  2  1  0  0  0  0
  2 11  1  0  0  0  0
 11 13  1  0  0  0  0
 24 25  1  0  0  0  0
 19  6  1  0  0  0  0
  2  1  1  0  0  0  0
 22 16  2  0  0  0  0
  5  6  1  0  0  0  0
 26 24  1  0  0  0  0
  1  7  2  0  0  0  0
 16 14  1  0  0  0  0
 16 27  1  0  0  0  0
 24 28  1  0  0  0  0
M  END
> <Molecule Name>
DNDI1449876

> <CDD Number>
CDD-1535549

> <IC50_uM>
0.054 (n=1)

$$$$

SketchEl molfile

 26 28  0  0  0  0  0  0  0  0999 V2000
    7.9044   -5.4255    0.0000 C   0  0  0  0  0  0  0  0  0  0  0  0
    7.8894   -6.2505    0.0000 N   0  0  0  0  0  0  0  0  0  0  0  0
    7.8678   -7.9004    0.0000 N   0  0  0  0  0  0  0  0  0  0  0  0
    8.6264   -5.0260    0.0000 N   0  0  0  0  0  0  0  0  0  0  0  0
    7.8574   -8.7254    0.0000 C   0  0  0  0  0  0  0  0  0  0  0  0
    8.5751   -9.1303    0.0000 C   0  0  0  0  0  0  0  0  0  0  0  0
    7.1974   -5.0000    0.0000 O   0  0  0  0  0  0  0  0  0  0  0  0
    9.2869  -10.3668    0.0000 N   0  0  0  0  0  0  0  0  0  0  0  0
    9.9959   -9.1214    0.0000 N   0  0  0  0  0  0  0  0  0  0  0  0
    8.5934   -6.6810    0.0000 C   0  0  0  0  0  0  0  0  0  0  0  0
    7.1662   -6.6573    0.0000 C   0  0  0  0  0  0  0  0  0  0  0  0
    8.5901   -7.5019    0.0000 C   0  0  0  0  0  0  0  0  0  0  0  0
    7.1517   -7.4851    0.0000 C   0  0  0  0  0  0  0  0  0  0  0  0
    7.1385   -9.1362    0.0000 C   0  0  0  0  0  0  0  0  0  0  0  0
   10.0023   -9.9512    0.0000 C   0  0  0  0  0  0  0  0  0  0  0  0
    7.1416   -9.9674    0.0000 C   0  0  0  0  0  0  0  0  0  0  0  0
    6.4261   -8.7321    0.0000 C   0  0  0  0  0  0  0  0  0  0  0  0
    5.0000  -10.3799    0.0000 Cl  0  0  0  0  0  0  0  0  0  0  0  0
    9.2784   -8.7161    0.0000 C   0  0  0  0  0  0  0  0  0  0  0  0
    8.5748   -9.9573    0.0000 C   0  0  0  0  0  0  0  0  0  0  0  0
    5.7117   -9.9680    0.0000 C   0  0  0  0  0  0  0  0  0  0  0  0
    6.4281  -10.3809    0.0000 C   0  0  0  0  0  0  0  0  0  0  0  0
    5.7130   -9.1403    0.0000 C   0  0  0  0  0  0  0  0  0  0  0  0
    9.3334   -5.4515    0.0000 C   0  0  0  0  0  0  0  0  0  0  0  0
   10.0514   -5.0518    0.0000 C   0  0  0  0  0  0  0  0  0  0  0  0
    7.8570  -10.3778    0.0000 F   0  0  0  0  0  0  0  0  0  0  0  0
 21 22  1  0  0  0  0
  6 20  2  0  0  0  0
 14 17  2  0  0  0  0
 20  8  1  0  0  0  0
 17 23  1  0  0  0  0
  8 15  2  0  0  0  0
 23 21  2  0  0  0  0
 15  9  1  0  0  0  0
  3 12  1  0  0  0  0
  3  5  1  0  0  0  0
  1  4  1  0  0  0  0
 14  5  1  0  0  0  0
 21 18  1  0  0  0  0
  9 19  2  0  0  0  0
  3 13  1  0  0  0  0
  4 24  1  0  0  0  0
 12 10  1  0  0  0  0
 10  2  1  0  0  0  0
  2 11  1  0  0  0  0
 11 13  1  0  0  0  0
 19  6  1  0  0  0  0
  2  1  1  0  0  0  0
 22 16  2  0  0  0  0
  5  6  1  0  0  0  0
 25 24  1  0  0  0  0
  1  7  2  0  0  0  0
 16 14  1  0  0  0  0
 16 26  1  0  0  0  0
M  END
> <Molecule Name>
DNDI1449877

> <CDD Number>
CDD-1535550

> <IC50_uM>
0.29 (n=1)

$$$$

SketchEl molfile

 31 34  0  0  0  0  0  0  0  0999 V2000
    7.9066   -6.5967    0.0000 C   0  0  0  0  0  0  0  0  0  0  0  0
    7.8915   -7.4223    0.0000 N   0  0  0  0  0  0  0  0  0  0  0  0
    7.8699   -9.0734    0.0000 N   0  0  0  0  0  0  0  0  0  0  0  0
    8.6291   -6.1969    0.0000 O   0  0  0  0  0  0  0  0  0  0  0  0
    7.8595   -9.8990    0.0000 C   0  0  0  0  0  0  0  0  0  0  0  0
    8.5778  -10.3042    0.0000 C   0  0  0  0  0  0  0  0  0  0  0  0
    7.1991   -6.1709    0.0000 O   0  0  0  0  0  0  0  0  0  0  0  0
    9.2901  -11.5416    0.0000 N   0  0  0  0  0  0  0  0  0  0  0  0
    9.9996  -10.2954    0.0000 C   0  0  0  0  0  0  0  0  0  0  0  0
    8.5961   -7.8531    0.0000 C   0  0  0  0  0  0  0  0  0  0  0  0
    7.1678   -7.8294    0.0000 C   0  0  0  0  0  0  0  0  0  0  0  0
    8.5928   -8.6746    0.0000 C   0  0  0  0  0  0  0  0  0  0  0  0
    7.1533   -8.6578    0.0000 C   0  0  0  0  0  0  0  0  0  0  0  0
    7.1401  -10.3102    0.0000 C   0  0  0  0  0  0  0  0  0  0  0  0
   10.0060  -11.1258    0.0000 C   0  0  0  0  0  0  0  0  0  0  0  0
    7.1432  -11.1420    0.0000 C   0  0  0  0  0  0  0  0  0  0  0  0
    6.4272   -9.9058    0.0000 C   0  0  0  0  0  0  0  0  0  0  0  0
    5.0000  -11.5548    0.0000 Cl  0  0  0  0  0  0  0  0  0  0  0  0
    9.2817   -9.8898    0.0000 C   0  0  0  0  0  0  0  0  0  0  0  0
    8.5775  -11.1319    0.0000 C   0  0  0  0  0  0  0  0  0  0  0  0
    5.7123  -11.1426    0.0000 C   0  0  0  0  0  0  0  0  0  0  0  0
    6.4292  -11.5558    0.0000 C   0  0  0  0  0  0  0  0  0  0  0  0
    5.7135  -10.3143    0.0000 C   0  0  0  0  0  0  0  0  0  0  0  0
    9.3366   -6.6227    0.0000 C   0  0  0  0  0  0  0  0  0  0  0  0
   10.0552   -6.2227    0.0000 C   0  0  0  0  0  0  0  0  0  0  0  0
    7.8591  -11.5527    0.0000 F   0  0  0  0  0  0  0  0  0  0  0  0
   10.7579   -6.6448    0.0000 C   0  0  0  0  0  0  0  0  0  0  0  0
   11.4760   -6.2454    0.0000 C   0  0  0  0  0  0  0  0  0  0  0  0
   11.4893   -5.4222    0.0000 C   0  0  0  0  0  0  0  0  0  0  0  0
   10.7786   -5.0000    0.0000 C   0  0  0  0  0  0  0  0  0  0  0  0
   10.0634   -5.4018    0.0000 C   0  0  0  0  0  0  0  0  0  0  0  0
 17 23  1  0  0  0  0
  8 15  2  0  0  0  0
 23 21  2  0  0  0  0
 15  9  1  0  0  0  0
  3 12  1  0  0  0  0
  3  5  1  0  0  0  0
  1  4  1  0  0  0  0
 14  5  1  0  0  0  0
 21 18  1  0  0  0  0
  9 19  2  0  0  0  0
  3 13  1  0  0  0  0
  4 24  1  0  0  0  0
 12 10  1  0  0  0  0
 10  2  1  0  0  0  0
  2 11  1  0  0  0  0
 11 13  1  0  0  0  0
 19  6  1  0  0  0  0
  2  1  1  0  0  0  0
 22 16  2  0  0  0  0
  5  6  1  0  0  0  0
 25 24  1  0  0  0  0
  1  7  2  0  0  0  0
 16 14  1  0  0  0  0
 16 26  1  0  0  0  0
 25 27  2  0  0  0  0
 21 22  1  0  0  0  0
 27 28  1  0  0  0  0
  6 20  2  0  0  0  0
 28 29  2  0  0  0  0
 14 17  2  0  0  0  0
 29 30  1  0  0  0  0
 20  8  1  0  0  0  0
 30 31  2  0  0  0  0
 31 25  1  0  0  0  0
M  END
> <Molecule Name>
DNDI1449878

> <CDD Number>
CDD-1535551

> <IC50_uM>
0.028 (n=1)

$$$$

SketchEl molfile

 30 33  0  0  0  0  0  0  0  0999 V2000
    9.3281   -6.2727    0.0000 C   0  0  0  0  0  0  0  0  0  0  0  0
   10.0307   -6.6947    0.0000 C   0  0  0  0  0  0  0  0  0  0  0  0
   10.7487   -6.2954    0.0000 C   0  0  0  0  0  0  0  0  0  0  0  0
   10.7620   -5.4723    0.0000 C   0  0  0  0  0  0  0  0  0  0  0  0
   10.0514   -5.0501    0.0000 C   0  0  0  0  0  0  0  0  0  0  0  0
    9.3362   -5.4518    0.0000 C   0  0  0  0  0  0  0  0  0  0  0  0
    7.9063   -5.4258    0.0000 C   0  0  0  0  0  0  0  0  0  0  0  0
    7.8913   -6.2513    0.0000 N   0  0  0  0  0  0  0  0  0  0  0  0
    7.8696   -7.9023    0.0000 N   0  0  0  0  0  0  0  0  0  0  0  0
    8.6288   -5.0260    0.0000 O   0  0  0  0  0  0  0  0  0  0  0  0
    7.8592   -8.7278    0.0000 C   0  0  0  0  0  0  0  0  0  0  0  0
    8.5774   -9.1329    0.0000 C   0  0  0  0  0  0  0  0  0  0  0  0
    7.1989   -5.0000    0.0000 O   0  0  0  0  0  0  0  0  0  0  0  0
    9.2897  -10.3702    0.0000 N   0  0  0  0  0  0  0  0  0  0  0  0
    9.9991   -9.1241    0.0000 C   0  0  0  0  0  0  0  0  0  0  0  0
    8.5957   -6.6820    0.0000 C   0  0  0  0  0  0  0  0  0  0  0  0
    7.1676   -6.6583    0.0000 C   0  0  0  0  0  0  0  0  0  0  0  0
    8.5925   -7.5035    0.0000 C   0  0  0  0  0  0  0  0  0  0  0  0
    7.1531   -7.4867    0.0000 C   0  0  0  0  0  0  0  0  0  0  0  0
    7.1399   -9.1389    0.0000 C   0  0  0  0  0  0  0  0  0  0  0  0
   10.0056   -9.9544    0.0000 C   0  0  0  0  0  0  0  0  0  0  0  0
    7.1430   -9.9707    0.0000 C   0  0  0  0  0  0  0  0  0  0  0  0
    6.4270   -8.7345    0.0000 C   0  0  0  0  0  0  0  0  0  0  0  0
    5.0000  -10.3834    0.0000 Cl  0  0  0  0  0  0  0  0  0  0  0  0
    9.2813   -8.7185    0.0000 C   0  0  0  0  0  0  0  0  0  0  0  0
    8.5771   -9.9605    0.0000 C   0  0  0  0  0  0  0  0  0  0  0  0
    5.7122   -9.9712    0.0000 C   0  0  0  0  0  0  0  0  0  0  0  0
    6.4290  -10.3844    0.0000 C   0  0  0  0  0  0  0  0  0  0  0  0
    5.7135   -9.1430    0.0000 C   0  0  0  0  0  0  0  0  0  0  0  0
    7.8588  -10.3813    0.0000 F   0  0  0  0  0  0  0  0  0  0  0  0
  3  4  2  0  0  0  0
  4  5  1  0  0  0  0
  5  6  2  0  0  0  0
  6  1  1  0  0  0  0
  1  2  2  0  0  0  0
  2  3  1  0  0  0  0
 23 29  1  0  0  0  0
 14 21  2  0  0  0  0
 29 27  2  0  0  0  0
 21 15  1  0  0  0  0
  9 18  1  0  0  0  0
  9 11  1  0  0  0  0
  7 10  1  0  0  0  0
 20 11  1  0  0  0  0
 27 24  1  0  0  0  0
 15 25  2  0  0  0  0
  9 19  1  0  0  0  0
 10  6  1  0  0  0  0
 18 16  1  0  0  0  0
 16  8  1  0  0  0  0
  8 17  1  0  0  0  0
 17 19  1  0  0  0  0
 25 12  1  0  0  0  0
  8  7  1  0  0  0  0
 28 22  2  0  0  0  0
 11 12  1  0  0  0  0
  7 13  2  0  0  0  0
 22 20  1  0  0  0  0
 22 30  1  0  0  0  0
 27 28  1  0  0  0  0
 12 26  2  0  0  0  0
 20 23  2  0  0  0  0
 26 14  1  0  0  0  0
M  END
> <Molecule Name>
DNDI1449879

> <CDD Number>
CDD-1535552

> <IC50_uM>
0.0045 (n=1)

$$$$

SketchEl molfile

 26 28  0  0  0  0  0  0  0  0999 V2000
   10.0485   -5.0501    0.0000 C   0  0  0  0  0  0  0  0  0  0  0  0
    9.3338   -5.4516    0.0000 C   0  0  0  0  0  0  0  0  0  0  0  0
    7.9047   -5.4256    0.0000 C   0  0  0  0  0  0  0  0  0  0  0  0
    7.8896   -6.2507    0.0000 N   0  0  0  0  0  0  0  0  0  0  0  0
    7.8680   -7.9007    0.0000 N   0  0  0  0  0  0  0  0  0  0  0  0
    8.6267   -5.0260    0.0000 O   0  0  0  0  0  0  0  0  0  0  0  0
    7.8576   -8.7257    0.0000 C   0  0  0  0  0  0  0  0  0  0  0  0
    8.5754   -9.1306    0.0000 C   0  0  0  0  0  0  0  0  0  0  0  0
    7.1976   -5.0000    0.0000 O   0  0  0  0  0  0  0  0  0  0  0  0
    9.2873  -10.3673    0.0000 N   0  0  0  0  0  0  0  0  0  0  0  0
    9.9963   -9.1218    0.0000 C   0  0  0  0  0  0  0  0  0  0  0  0
    8.5937   -6.6811    0.0000 C   0  0  0  0  0  0  0  0  0  0  0  0
    7.1664   -6.6574    0.0000 C   0  0  0  0  0  0  0  0  0  0  0  0
    8.5904   -7.5021    0.0000 C   0  0  0  0  0  0  0  0  0  0  0  0
    7.1519   -7.4853    0.0000 C   0  0  0  0  0  0  0  0  0  0  0  0
    7.1387   -9.1366    0.0000 C   0  0  0  0  0  0  0  0  0  0  0  0
   10.0027   -9.9516    0.0000 C   0  0  0  0  0  0  0  0  0  0  0  0
    7.1418   -9.9679    0.0000 C   0  0  0  0  0  0  0  0  0  0  0  0
    6.4262   -8.7325    0.0000 C   0  0  0  0  0  0  0  0  0  0  0  0
    5.0000  -10.3804    0.0000 Cl  0  0  0  0  0  0  0  0  0  0  0  0
    9.2788   -8.7165    0.0000 C   0  0  0  0  0  0  0  0  0  0  0  0
    8.5751   -9.9578    0.0000 C   0  0  0  0  0  0  0  0  0  0  0  0
    5.7118   -9.9684    0.0000 C   0  0  0  0  0  0  0  0  0  0  0  0
    6.4282  -10.3814    0.0000 C   0  0  0  0  0  0  0  0  0  0  0  0
    5.7131   -9.1407    0.0000 C   0  0  0  0  0  0  0  0  0  0  0  0
    7.8572  -10.3783    0.0000 F   0  0  0  0  0  0  0  0  0  0  0  0
  1  2  1  0  0  0  0
 19 25  1  0  0  0  0
 10 17  2  0  0  0  0
 25 23  2  0  0  0  0
 17 11  1  0  0  0  0
  5 14  1  0  0  0  0
  5  7  1  0  0  0  0
  3  6  1  0  0  0  0
 16  7  1  0  0  0  0
 23 20  1  0  0  0  0
 11 21  2  0  0  0  0
  5 15  1  0  0  0  0
  6  2  1  0  0  0  0
 14 12  1  0  0  0  0
 12  4  1  0  0  0  0
  4 13  1  0  0  0  0
 13 15  1  0  0  0  0
 21  8  1  0  0  0  0
  4  3  1  0  0  0  0
 24 18  2  0  0  0  0
  7  8  1  0  0  0  0
  3  9  2  0  0  0  0
 18 16  1  0  0  0  0
 18 26  1  0  0  0  0
 23 24  1  0  0  0  0
  8 22  2  0  0  0  0
 16 19  2  0  0  0  0
 22 10  1  0  0  0  0
M  END
> <Molecule Name>
DNDI1449880

> <CDD Number>
CDD-1535553

> <IC50_uM>
0.024 (n=1)

$$$$

SketchEl molfile

 33 36  0  0  0  0  0  0  0  0999 V2000
    9.3324   -5.4514    0.0000 C   0  0  0  0  0  0  0  0  0  0  0  0
    7.9038   -5.4254    0.0000 C   0  0  0  0  0  0  0  0  0  0  0  0
    7.8887   -6.2503    0.0000 N   0  0  0  0  0  0  0  0  0  0  0  0
    7.8671   -7.8997    0.0000 N   0  0  0  0  0  0  0  0  0  0  0  0
    8.6256   -5.0260    0.0000 N   0  0  0  0  0  0  0  0  0  0  0  0
    7.8567   -8.7245    0.0000 C   0  0  0  0  0  0  0  0  0  0  0  0
    8.5743   -9.1293    0.0000 C   0  0  0  0  0  0  0  0  0  0  0  0
    7.1969   -5.0000    0.0000 O   0  0  0  0  0  0  0  0  0  0  0  0
    9.2860  -10.3656    0.0000 N   0  0  0  0  0  0  0  0  0  0  0  0
    9.9947   -9.1205    0.0000 N   0  0  0  0  0  0  0  0  0  0  0  0
    8.5926   -6.6806    0.0000 C   0  0  0  0  0  0  0  0  0  0  0  0
    7.1657   -6.6569    0.0000 C   0  0  0  0  0  0  0  0  0  0  0  0
    8.5893   -7.5013    0.0000 C   0  0  0  0  0  0  0  0  0  0  0  0
    7.1512   -7.4846    0.0000 C   0  0  0  0  0  0  0  0  0  0  0  0
    7.1380   -9.1353    0.0000 C   0  0  0  0  0  0  0  0  0  0  0  0
   10.0012   -9.9501    0.0000 C   0  0  0  0  0  0  0  0  0  0  0  0
    7.1412   -9.9663    0.0000 C   0  0  0  0  0  0  0  0  0  0  0  0
    6.4258   -8.7313    0.0000 C   0  0  0  0  0  0  0  0  0  0  0  0
    5.0000  -10.3787    0.0000 Cl  0  0  0  0  0  0  0  0  0  0  0  0
    9.2775   -8.7153    0.0000 C   0  0  0  0  0  0  0  0  0  0  0  0
    8.5740   -9.9562    0.0000 C   0  0  0  0  0  0  0  0  0  0  0  0
    5.7116   -9.9669    0.0000 C   0  0  0  0  0  0  0  0  0  0  0  0
    6.4278  -10.3797    0.0000 C   0  0  0  0  0  0  0  0  0  0  0  0
    5.7128   -9.1394    0.0000 C   0  0  0  0  0  0  0  0  0  0  0  0
    7.8563  -10.3767    0.0000 F   0  0  0  0  0  0  0  0  0  0  0  0
    9.3157   -6.2767    0.0000 C   0  0  0  0  0  0  0  0  0  0  0  0
   10.0217   -6.7020    0.0000 C   0  0  0  0  0  0  0  0  0  0  0  0
   10.7445   -6.3026    0.0000 C   0  0  0  0  0  0  0  0  0  0  0  0
   10.7569   -5.4734    0.0000 C   0  0  0  0  0  0  0  0  0  0  0  0
   10.0503   -5.0518    0.0000 C   0  0  0  0  0  0  0  0  0  0  0  0
   11.4526   -6.7275    0.0000 C   0  0  0  0  0  0  0  0  0  0  0  0
   11.4387   -7.5533    0.0000 C   0  0  0  0  0  0  0  0  0  0  0  0
   12.1747   -6.3267    0.0000 C   0  0  0  0  0  0  0  0  0  0  0  0
 15  6  1  0  0  0  0
 22 19  1  0  0  0  0
 10 20  2  0  0  0  0
  4 14  1  0  0  0  0
  5  1  1  0  0  0  0
 13 11  1  0  0  0  0
 11  3  1  0  0  0  0
  3 12  1  0  0  0  0
 12 14  1  0  0  0  0
 20  7  1  0  0  0  0
  3  2  1  0  0  0  0
 23 17  2  0  0  0  0
  6  7  1  0  0  0  0
  2  8  2  0  0  0  0
 17 15  1  0  0  0  0
 17 25  1  0  0  0  0
 22 23  1  0  0  0  0
  7 21  2  0  0  0  0
 15 18  2  0  0  0  0
 21  9  1  0  0  0  0
  1 26  2  0  0  0  0
 18 24  1  0  0  0  0
 26 27  1  0  0  0  0
  9 16  2  0  0  0  0
 27 28  2  0  0  0  0
 24 22  2  0  0  0  0
 28 29  1  0  0  0  0
 16 10  1  0  0  0  0
 29 30  2  0  0  0  0
 30  1  1  0  0  0  0
  4 13  1  0  0  0  0
 28 31  1  0  0  0  0
  4  6  1  0  0  0  0
 31 32  1  0  0  0  0
  2  5  1  0  0  0  0
 31 33  1  0  0  0  0
M  END
> <Molecule Name>
DNDI1449881

> <CDD Number>
CDD-1535554

> <IC50_uM>
0.0065 (n=1)

$$$$

SketchEl molfile

 26 28  0  0  0  0  0  0  0  0999 V2000
   10.0496   -5.8493    0.0000 C   0  0  0  0  0  0  0  0  0  0  0  0
    9.3347   -6.2509    0.0000 O   0  0  0  0  0  0  0  0  0  0  0  0
    7.9053   -6.2249    0.0000 N   0  0  0  0  0  0  0  0  0  0  0  0
    7.8903   -7.0502    0.0000 C   0  0  0  0  0  0  0  0  0  0  0  0
    7.8686   -8.7005    0.0000 N   0  0  0  0  0  0  0  0  0  0  0  0
    8.6275   -5.8253    0.0000 C   0  0  0  0  0  0  0  0  0  0  0  0
    7.8582   -9.5258    0.0000 C   0  0  0  0  0  0  0  0  0  0  0  0
    8.5762   -9.9308    0.0000 C   0  0  0  0  0  0  0  0  0  0  0  0
    9.2883  -11.1676    0.0000 N   0  0  0  0  0  0  0  0  0  0  0  0
    9.9974   -9.9219    0.0000 C   0  0  0  0  0  0  0  0  0  0  0  0
    8.5945   -7.4807    0.0000 C   0  0  0  0  0  0  0  0  0  0  0  0
    7.1669   -7.4570    0.0000 C   0  0  0  0  0  0  0  0  0  0  0  0
    8.5912   -8.3019    0.0000 C   0  0  0  0  0  0  0  0  0  0  0  0
    7.1524   -8.2851    0.0000 C   0  0  0  0  0  0  0  0  0  0  0  0
    7.1391   -9.9368    0.0000 C   0  0  0  0  0  0  0  0  0  0  0  0
   10.0038  -10.7519    0.0000 C   0  0  0  0  0  0  0  0  0  0  0  0
    7.1423  -10.7682    0.0000 C   0  0  0  0  0  0  0  0  0  0  0  0
    6.4265   -9.5325    0.0000 C   0  0  0  0  0  0  0  0  0  0  0  0
    5.0000  -11.1808    0.0000 Cl  0  0  0  0  0  0  0  0  0  0  0  0
    9.2798   -9.5165    0.0000 C   0  0  0  0  0  0  0  0  0  0  0  0
    8.5759  -10.7581    0.0000 C   0  0  0  0  0  0  0  0  0  0  0  0
    5.7119  -10.7687    0.0000 C   0  0  0  0  0  0  0  0  0  0  0  0
    6.4285  -11.1818    0.0000 C   0  0  0  0  0  0  0  0  0  0  0  0
    5.7132   -9.9408    0.0000 C   0  0  0  0  0  0  0  0  0  0  0  0
    8.6426   -5.0000    0.0000 O   0  0  0  0  0  0  0  0  0  0  0  0
   10.7548   -6.2677    0.0000 C   0  0  0  0  0  0  0  0  0  0  0  0
 18 24  1  0  0  0  0
  9 16  2  0  0  0  0
 24 22  2  0  0  0  0
 16 10  1  0  0  0  0
  5 13  1  0  0  0  0
  5  7  1  0  0  0  0
  3  6  1  0  0  0  0
 15  7  1  0  0  0  0
 22 19  1  0  0  0  0
 10 20  2  0  0  0  0
  5 14  1  0  0  0  0
  6  2  1  0  0  0  0
 13 11  1  0  0  0  0
 11  4  1  0  0  0  0
  4 12  1  0  0  0  0
 12 14  1  0  0  0  0
 20  8  1  0  0  0  0
  4  3  1  0  0  0  0
 23 17  2  0  0  0  0
  7  8  1  0  0  0  0
 17 15  1  0  0  0  0
 22 23  1  0  0  0  0
  8 21  2  0  0  0  0
 15 18  2  0  0  0  0
 21  9  1  0  0  0  0
  6 25  2  0  0  0  0
  1  2  1  0  0  0  0
  1 26  1  0  0  0  0
M  END
> <Molecule Name>
DNDI1449902

> <CDD Number>
CDD-1535555

> <IC50_uM>
0.018 (n=1)

$$$$

SketchEl molfile

 26 28  0  0  0  0  0  0  0  0999 V2000
   10.0484   -5.8491    0.0000 C   0  0  0  0  0  0  0  0  0  0  0  0
    9.3337   -6.2506    0.0000 N   0  0  0  0  0  0  0  0  0  0  0  0
    7.9046   -6.2246    0.0000 N   0  0  0  0  0  0  0  0  0  0  0  0
    7.8896   -7.0496    0.0000 C   0  0  0  0  0  0  0  0  0  0  0  0
    7.8680   -8.6996    0.0000 N   0  0  0  0  0  0  0  0  0  0  0  0
    8.6267   -5.8250    0.0000 C   0  0  0  0  0  0  0  0  0  0  0  0
    7.8576   -9.5247    0.0000 C   0  0  0  0  0  0  0  0  0  0  0  0
    8.5753   -9.9296    0.0000 C   0  0  0  0  0  0  0  0  0  0  0  0
    9.2872  -11.1662    0.0000 N   0  0  0  0  0  0  0  0  0  0  0  0
    9.9962   -9.9207    0.0000 C   0  0  0  0  0  0  0  0  0  0  0  0
    8.5936   -7.4801    0.0000 C   0  0  0  0  0  0  0  0  0  0  0  0
    7.1664   -7.4564    0.0000 C   0  0  0  0  0  0  0  0  0  0  0  0
    8.5904   -8.3011    0.0000 C   0  0  0  0  0  0  0  0  0  0  0  0
    7.1519   -8.2843    0.0000 C   0  0  0  0  0  0  0  0  0  0  0  0
    7.1386   -9.9356    0.0000 C   0  0  0  0  0  0  0  0  0  0  0  0
   10.0026  -10.7505    0.0000 C   0  0  0  0  0  0  0  0  0  0  0  0
    7.1418  -10.7668    0.0000 C   0  0  0  0  0  0  0  0  0  0  0  0
    6.4262   -9.5314    0.0000 C   0  0  0  0  0  0  0  0  0  0  0  0
    5.0000  -11.1793    0.0000 Cl  0  0  0  0  0  0  0  0  0  0  0  0
    9.2788   -9.5154    0.0000 C   0  0  0  0  0  0  0  0  0  0  0  0
    8.5750  -10.7567    0.0000 C   0  0  0  0  0  0  0  0  0  0  0  0
    5.7118  -10.7673    0.0000 C   0  0  0  0  0  0  0  0  0  0  0  0
    6.4282  -11.1803    0.0000 C   0  0  0  0  0  0  0  0  0  0  0  0
    5.7131   -9.9396    0.0000 C   0  0  0  0  0  0  0  0  0  0  0  0
    8.6417   -5.0000    0.0000 O   0  0  0  0  0  0  0  0  0  0  0  0
    9.3213   -7.0757    0.0000 C   0  0  0  0  0  0  0  0  0  0  0  0
 18 24  1  0  0  0  0
  9 16  2  0  0  0  0
 24 22  2  0  0  0  0
 16 10  1  0  0  0  0
  5 13  1  0  0  0  0
  5  7  1  0  0  0  0
  3  6  1  0  0  0  0
 15  7  1  0  0  0  0
 22 19  1  0  0  0  0
 10 20  2  0  0  0  0
  5 14  1  0  0  0  0
  6  2  1  0  0  0  0
 13 11  1  0  0  0  0
 11  4  1  0  0  0  0
  4 12  1  0  0  0  0
 12 14  1  0  0  0  0
 20  8  1  0  0  0  0
  4  3  1  0  0  0  0
 23 17  2  0  0  0  0
  7  8  1  0  0  0  0
 17 15  1  0  0  0  0
 22 23  1  0  0  0  0
  8 21  2  0  0  0  0
 15 18  2  0  0  0  0
 21  9  1  0  0  0  0
  6 25  2  0  0  0  0
  1  2  1  0  0  0  0
  2 26  1  0  0  0  0
M  END
> <Molecule Name>
DNDI1449903

> <CDD Number>
CDD-1535556

> <IC50_uM>
0.032 (n=1)

$$$$

SketchEl molfile

 30 33  0  0  0  0  0  0  0  0999 V2000
   10.0547   -6.2213    0.0000 C   0  0  0  0  0  0  0  0  0  0  0  0
    9.3391   -6.6233    0.0000 N   0  0  0  0  0  0  0  0  0  0  0  0
    7.9082   -6.5972    0.0000 N   0  0  0  0  0  0  0  0  0  0  0  0
    7.8932   -7.4233    0.0000 C   0  0  0  0  0  0  0  0  0  0  0  0
    7.8715   -9.0753    0.0000 N   0  0  0  0  0  0  0  0  0  0  0  0
    8.6312   -6.1972    0.0000 C   0  0  0  0  0  0  0  0  0  0  0  0
    7.8611   -9.9014    0.0000 C   0  0  0  0  0  0  0  0  0  0  0  0
    8.5798  -10.3068    0.0000 C   0  0  0  0  0  0  0  0  0  0  0  0
    9.2926  -11.5449    0.0000 N   0  0  0  0  0  0  0  0  0  0  0  0
   10.0024  -10.2979    0.0000 C   0  0  0  0  0  0  0  0  0  0  0  0
    8.5981   -7.8543    0.0000 C   0  0  0  0  0  0  0  0  0  0  0  0
    7.1691   -7.8306    0.0000 C   0  0  0  0  0  0  0  0  0  0  0  0
    8.5948   -8.6763    0.0000 C   0  0  0  0  0  0  0  0  0  0  0  0
    7.1545   -8.6595    0.0000 C   0  0  0  0  0  0  0  0  0  0  0  0
    7.1413  -10.3128    0.0000 C   0  0  0  0  0  0  0  0  0  0  0  0
   10.0089  -11.1288    0.0000 C   0  0  0  0  0  0  0  0  0  0  0  0
    7.1445  -11.1451    0.0000 C   0  0  0  0  0  0  0  0  0  0  0  0
    6.4280   -9.9081    0.0000 C   0  0  0  0  0  0  0  0  0  0  0  0
    5.0000  -11.5581    0.0000 Cl  0  0  0  0  0  0  0  0  0  0  0  0
    9.2841   -9.8921    0.0000 C   0  0  0  0  0  0  0  0  0  0  0  0
    8.5795  -11.1350    0.0000 C   0  0  0  0  0  0  0  0  0  0  0  0
    5.7127  -11.1456    0.0000 C   0  0  0  0  0  0  0  0  0  0  0  0
    6.4300  -11.5591    0.0000 C   0  0  0  0  0  0  0  0  0  0  0  0
    5.7139  -10.3169    0.0000 C   0  0  0  0  0  0  0  0  0  0  0  0
    8.6462   -5.3711    0.0000 O   0  0  0  0  0  0  0  0  0  0  0  0
   10.7583   -6.6415    0.0000 C   0  0  0  0  0  0  0  0  0  0  0  0
   11.4734   -6.2402    0.0000 C   0  0  0  0  0  0  0  0  0  0  0  0
   11.4836   -5.4186    0.0000 C   0  0  0  0  0  0  0  0  0  0  0  0
   10.7726   -5.0000    0.0000 C   0  0  0  0  0  0  0  0  0  0  0  0
   10.0604   -5.4037    0.0000 C   0  0  0  0  0  0  0  0  0  0  0  0
  5 13  1  0  0  0  0
  5  7  1  0  0  0  0
  3  6  1  0  0  0  0
 15  7  1  0  0  0  0
 22 19  1  0  0  0  0
 10 20  2  0  0  0  0
  5 14  1  0  0  0  0
  6  2  1  0  0  0  0
 13 11  1  0  0  0  0
 11  4  1  0  0  0  0
  4 12  1  0  0  0  0
 12 14  1  0  0  0  0
 20  8  1  0  0  0  0
  4  3  1  0  0  0  0
 23 17  2  0  0  0  0
  7  8  1  0  0  0  0
 17 15  1  0  0  0  0
 22 23  1  0  0  0  0
  8 21  2  0  0  0  0
 15 18  2  0  0  0  0
 21  9  1  0  0  0  0
  6 25  2  0  0  0  0
  1  2  1  0  0  0  0
  1 26  2  0  0  0  0
 18 24  1  0  0  0  0
 26 27  1  0  0  0  0
  9 16  2  0  0  0  0
 27 28  2  0  0  0  0
 24 22  2  0  0  0  0
 28 29  1  0  0  0  0
 16 10  1  0  0  0  0
 29 30  2  0  0  0  0
 30  1  1  0  0  0  0
M  END
> <Molecule Name>
DNDI1449904

> <CDD Number>
CDD-1535557

> <IC50_uM>
0.02 (n=1)

$$$$

SketchEl molfile

 30 33  0  0  0  0  0  0  0  0999 V2000
   10.0547   -6.2213    0.0000 C   0  0  0  0  0  0  0  0  0  0  0  0
    9.3391   -6.6233    0.0000 N   0  0  0  0  0  0  0  0  0  0  0  0
    7.9082   -6.5972    0.0000 N   0  0  0  0  0  0  0  0  0  0  0  0
    7.8932   -7.4233    0.0000 C   0  0  0  0  0  0  0  0  0  0  0  0
    7.8715   -9.0753    0.0000 N   0  0  0  0  0  0  0  0  0  0  0  0
    8.6312   -6.1972    0.0000 C   0  0  0  0  0  0  0  0  0  0  0  0
    7.8611   -9.9014    0.0000 C   0  0  0  0  0  0  0  0  0  0  0  0
    8.5798  -10.3068    0.0000 C   0  0  0  0  0  0  0  0  0  0  0  0
    9.2926  -11.5449    0.0000 N   0  0  0  0  0  0  0  0  0  0  0  0
   10.0024  -10.2979    0.0000 C   0  0  0  0  0  0  0  0  0  0  0  0
    8.5981   -7.8543    0.0000 C   0  0  0  0  0  0  0  0  0  0  0  0
    7.1691   -7.8306    0.0000 C   0  0  0  0  0  0  0  0  0  0  0  0
    8.5948   -8.6763    0.0000 C   0  0  0  0  0  0  0  0  0  0  0  0
    7.1545   -8.6595    0.0000 C   0  0  0  0  0  0  0  0  0  0  0  0
    7.1413  -10.3128    0.0000 C   0  0  0  0  0  0  0  0  0  0  0  0
   10.0089  -11.1288    0.0000 C   0  0  0  0  0  0  0  0  0  0  0  0
    7.1445  -11.1451    0.0000 C   0  0  0  0  0  0  0  0  0  0  0  0
    6.4280   -9.9081    0.0000 C   0  0  0  0  0  0  0  0  0  0  0  0
    5.0000  -11.5581    0.0000 Cl  0  0  0  0  0  0  0  0  0  0  0  0
    9.2841   -9.8921    0.0000 C   0  0  0  0  0  0  0  0  0  0  0  0
    8.5795  -11.1350    0.0000 C   0  0  0  0  0  0  0  0  0  0  0  0
    5.7127  -11.1456    0.0000 C   0  0  0  0  0  0  0  0  0  0  0  0
    6.4300  -11.5591    0.0000 C   0  0  0  0  0  0  0  0  0  0  0  0
    5.7139  -10.3169    0.0000 C   0  0  0  0  0  0  0  0  0  0  0  0
    8.6462   -5.3711    0.0000 O   0  0  0  0  0  0  0  0  0  0  0  0
   10.7583   -6.6415    0.0000 C   0  0  0  0  0  0  0  0  0  0  0  0
   11.4734   -6.2402    0.0000 C   0  0  0  0  0  0  0  0  0  0  0  0
   11.4836   -5.4186    0.0000 C   0  0  0  0  0  0  0  0  0  0  0  0
   10.7726   -5.0000    0.0000 C   0  0  0  0  0  0  0  0  0  0  0  0
   10.0604   -5.4037    0.0000 C   0  0  0  0  0  0  0  0  0  0  0  0
  5 13  1  0  0  0  0
  5  7  1  0  0  0  0
  3  6  1  0  0  0  0
 15  7  1  0  0  0  0
 22 19  1  0  0  0  0
 10 20  2  0  0  0  0
  5 14  1  0  0  0  0
  6  2  1  0  0  0  0
 13 11  1  0  0  0  0
 11  4  1  0  0  0  0
  4 12  1  0  0  0  0
 12 14  1  0  0  0  0
 20  8  1  0  0  0  0
  4  3  1  0  0  0  0
 23 17  2  0  0  0  0
  7  8  1  0  0  0  0
 17 15  1  0  0  0  0
 22 23  1  0  0  0  0
  8 21  2  0  0  0  0
 15 18  2  0  0  0  0
 21  9  1  0  0  0  0
  6 25  2  0  0  0  0
  1  2  1  0  0  0  0
  1 26  1  0  0  0  0
 18 24  1  0  0  0  0
 26 27  1  0  0  0  0
  9 16  2  0  0  0  0
 27 28  1  0  0  0  0
 24 22  2  0  0  0  0
 28 29  1  0  0  0  0
 16 10  1  0  0  0  0
 29 30  1  0  0  0  0
 30  1  1  0  0  0  0
M  END
> <Molecule Name>
DNDI1449905

> <CDD Number>
CDD-1535558

> <IC50_uM>
0.026 (n=1)

$$$$

SketchEl molfile

 26 28  0  0  0  0  0  0  0  0999 V2000
   10.0499   -5.8494    0.0000 C   0  0  0  0  0  0  0  0  0  0  0  0
    9.3349   -6.2510    0.0000 N   0  0  0  0  0  0  0  0  0  0  0  0
    7.9054   -6.2249    0.0000 N   0  0  0  0  0  0  0  0  0  0  0  0
    7.8904   -7.0503    0.0000 C   0  0  0  0  0  0  0  0  0  0  0  0
    7.8688   -8.7007    0.0000 N   0  0  0  0  0  0  0  0  0  0  0  0
    8.6277   -5.8253    0.0000 C   0  0  0  0  0  0  0  0  0  0  0  0
    7.8584   -9.5260    0.0000 C   0  0  0  0  0  0  0  0  0  0  0  0
    8.5764   -9.9310    0.0000 C   0  0  0  0  0  0  0  0  0  0  0  0
    9.2885  -11.1679    0.0000 N   0  0  0  0  0  0  0  0  0  0  0  0
    9.9977   -9.9222    0.0000 C   0  0  0  0  0  0  0  0  0  0  0  0
    8.5947   -7.4808    0.0000 C   0  0  0  0  0  0  0  0  0  0  0  0
    7.1670   -7.4571    0.0000 C   0  0  0  0  0  0  0  0  0  0  0  0
    8.5914   -8.3021    0.0000 C   0  0  0  0  0  0  0  0  0  0  0  0
    7.1525   -8.2853    0.0000 C   0  0  0  0  0  0  0  0  0  0  0  0
    7.1392   -9.9370    0.0000 C   0  0  0  0  0  0  0  0  0  0  0  0
   10.0041  -10.7522    0.0000 C   0  0  0  0  0  0  0  0  0  0  0  0
    7.1424  -10.7685    0.0000 C   0  0  0  0  0  0  0  0  0  0  0  0
    6.4266   -9.5327    0.0000 C   0  0  0  0  0  0  0  0  0  0  0  0
    5.0000  -11.1811    0.0000 Cl  0  0  0  0  0  0  0  0  0  0  0  0
    9.2800   -9.5167    0.0000 C   0  0  0  0  0  0  0  0  0  0  0  0
    8.5761  -10.7584    0.0000 C   0  0  0  0  0  0  0  0  0  0  0  0
    5.7120  -10.7690    0.0000 C   0  0  0  0  0  0  0  0  0  0  0  0
    6.4286  -11.1821    0.0000 C   0  0  0  0  0  0  0  0  0  0  0  0
    5.7133   -9.9410    0.0000 C   0  0  0  0  0  0  0  0  0  0  0  0
    8.6427   -5.0000    0.0000 O   0  0  0  0  0  0  0  0  0  0  0  0
   10.7528   -6.2692    0.0000 C   0  0  0  0  0  0  0  0  0  0  0  0
  5 13  1  0  0  0  0
  5  7  1  0  0  0  0
  3  6  1  0  0  0  0
 15  7  1  0  0  0  0
 22 19  1  0  0  0  0
 10 20  2  0  0  0  0
  5 14  1  0  0  0  0
  6  2  1  0  0  0  0
 13 11  1  0  0  0  0
 11  4  1  0  0  0  0
  4 12  1  0  0  0  0
 12 14  1  0  0  0  0
 20  8  1  0  0  0  0
  4  3  1  0  0  0  0
 23 17  2  0  0  0  0
  7  8  1  0  0  0  0
 17 15  1  0  0  0  0
 22 23  1  0  0  0  0
  8 21  2  0  0  0  0
 15 18  2  0  0  0  0
 21  9  1  0  0  0  0
  6 25  2  0  0  0  0
  1  2  1  0  0  0  0
  1 26  1  0  0  0  0
 18 24  1  0  0  0  0
  9 16  2  0  0  0  0
 24 22  2  0  0  0  0
 16 10  1  0  0  0  0
M  END
> <Molecule Name>
DNDI1449906

> <CDD Number>
CDD-1535559

> <IC50_uM>
0.097 (n=1)

$$$$

SketchEl molfile

 28 30  0  0  0  0  0  0  0  0999 V2000
   10.0519   -5.8497    0.0000 C   0  0  0  0  0  0  0  0  0  0  0  0
    9.3367   -6.2515    0.0000 N   0  0  0  0  0  0  0  0  0  0  0  0
    7.9066   -6.2254    0.0000 N   0  0  0  0  0  0  0  0  0  0  0  0
    7.8916   -7.0511    0.0000 C   0  0  0  0  0  0  0  0  0  0  0  0
    7.8700   -8.7022    0.0000 N   0  0  0  0  0  0  0  0  0  0  0  0
    8.6292   -5.8256    0.0000 C   0  0  0  0  0  0  0  0  0  0  0  0
    7.8595   -9.5278    0.0000 C   0  0  0  0  0  0  0  0  0  0  0  0
    8.5778   -9.9330    0.0000 C   0  0  0  0  0  0  0  0  0  0  0  0
    9.2902  -11.1704    0.0000 N   0  0  0  0  0  0  0  0  0  0  0  0
    9.9997   -9.9241    0.0000 C   0  0  0  0  0  0  0  0  0  0  0  0
    8.5961   -7.4818    0.0000 C   0  0  0  0  0  0  0  0  0  0  0  0
    7.1679   -7.4581    0.0000 C   0  0  0  0  0  0  0  0  0  0  0  0
    8.5928   -8.3034    0.0000 C   0  0  0  0  0  0  0  0  0  0  0  0
    7.1534   -8.2866    0.0000 C   0  0  0  0  0  0  0  0  0  0  0  0
    7.1401   -9.9390    0.0000 C   0  0  0  0  0  0  0  0  0  0  0  0
   10.0061  -10.7545    0.0000 C   0  0  0  0  0  0  0  0  0  0  0  0
    7.1433  -10.7708    0.0000 C   0  0  0  0  0  0  0  0  0  0  0  0
    6.4272   -9.5345    0.0000 C   0  0  0  0  0  0  0  0  0  0  0  0
    5.0000  -11.1836    0.0000 Cl  0  0  0  0  0  0  0  0  0  0  0  0
    9.2817   -9.5186    0.0000 C   0  0  0  0  0  0  0  0  0  0  0  0
    8.5775  -10.7607    0.0000 C   0  0  0  0  0  0  0  0  0  0  0  0
    5.7123  -10.7714    0.0000 C   0  0  0  0  0  0  0  0  0  0  0  0
    6.4292  -11.1846    0.0000 C   0  0  0  0  0  0  0  0  0  0  0  0
    5.7135   -9.9430    0.0000 C   0  0  0  0  0  0  0  0  0  0  0  0
    8.6442   -5.0000    0.0000 O   0  0  0  0  0  0  0  0  0  0  0  0
   10.7552   -6.2697    0.0000 C   0  0  0  0  0  0  0  0  0  0  0  0
   10.0628   -5.0295    0.0000 C   0  0  0  0  0  0  0  0  0  0  0  0
   10.2537   -6.6448    0.0000 C   0  0  0  0  0  0  0  0  0  0  0  0
  5  7  1  0  0  0  0
  3  6  1  0  0  0  0
 15  7  1  0  0  0  0
 22 19  1  0  0  0  0
 10 20  2  0  0  0  0
  5 14  1  0  0  0  0
  6  2  1  0  0  0  0
 13 11  1  0  0  0  0
 11  4  1  0  0  0  0
  4 12  1  0  0  0  0
 12 14  1  0  0  0  0
 20  8  1  0  0  0  0
  4  3  1  0  0  0  0
 23 17  2  0  0  0  0
  7  8  1  0  0  0  0
 17 15  1  0  0  0  0
 22 23  1  0  0  0  0
  8 21  2  0  0  0  0
 15 18  2  0  0  0  0
 21  9  1  0  0  0  0
  6 25  2  0  0  0  0
  1  2  1  0  0  0  0
  1 26  1  0  0  0  0
 18 24  1  0  0  0  0
  9 16  2  0  0  0  0
 24 22  2  0  0  0  0
 16 10  1  0  0  0  0
  1 27  1  0  0  0  0
  5 13  1  0  0  0  0
  1 28  1  0  0  0  0
M  END
> <Molecule Name>
DNDI1449907

> <CDD Number>
CDD-1535560

> <IC50_uM>
0.063 (n=1)

$$$$

SketchEl molfile

 33 36  0  0  0  0  0  0  0  0999 V2000
   10.0564   -7.0283    0.0000 C   0  0  0  0  0  0  0  0  0  0  0  0
    9.3406   -7.4304    0.0000 N   0  0  0  0  0  0  0  0  0  0  0  0
    7.9092   -7.4043    0.0000 N   0  0  0  0  0  0  0  0  0  0  0  0
    7.8942   -8.2307    0.0000 C   0  0  0  0  0  0  0  0  0  0  0  0
    7.8725   -9.8833    0.0000 N   0  0  0  0  0  0  0  0  0  0  0  0
    8.6324   -7.0042    0.0000 C   0  0  0  0  0  0  0  0  0  0  0  0
    7.8621  -10.7096    0.0000 C   0  0  0  0  0  0  0  0  0  0  0  0
    8.5810  -11.1152    0.0000 C   0  0  0  0  0  0  0  0  0  0  0  0
    9.2940  -12.3537    0.0000 N   0  0  0  0  0  0  0  0  0  0  0  0
   10.0041  -11.1063    0.0000 C   0  0  0  0  0  0  0  0  0  0  0  0
    8.5993   -8.6618    0.0000 C   0  0  0  0  0  0  0  0  0  0  0  0
    7.1698   -8.6381    0.0000 C   0  0  0  0  0  0  0  0  0  0  0  0
    8.5960   -9.4841    0.0000 C   0  0  0  0  0  0  0  0  0  0  0  0
    7.1553   -9.4673    0.0000 C   0  0  0  0  0  0  0  0  0  0  0  0
    7.1420  -11.1212    0.0000 C   0  0  0  0  0  0  0  0  0  0  0  0
   10.0106  -11.9375    0.0000 C   0  0  0  0  0  0  0  0  0  0  0  0
    7.1452  -11.9538    0.0000 C   0  0  0  0  0  0  0  0  0  0  0  0
    6.4284  -10.7164    0.0000 C   0  0  0  0  0  0  0  0  0  0  0  0
    5.0000  -12.3669    0.0000 Cl  0  0  0  0  0  0  0  0  0  0  0  0
    9.2855  -10.7004    0.0000 C   0  0  0  0  0  0  0  0  0  0  0  0
    8.5807  -11.9436    0.0000 C   0  0  0  0  0  0  0  0  0  0  0  0
    5.7129  -11.9543    0.0000 C   0  0  0  0  0  0  0  0  0  0  0  0
    6.4304  -12.3679    0.0000 C   0  0  0  0  0  0  0  0  0  0  0  0
    5.7142  -11.1252    0.0000 C   0  0  0  0  0  0  0  0  0  0  0  0
    8.6475   -6.1778    0.0000 O   0  0  0  0  0  0  0  0  0  0  0  0
   10.7603   -7.4487    0.0000 C   0  0  0  0  0  0  0  0  0  0  0  0
   11.4756   -7.0472    0.0000 C   0  0  0  0  0  0  0  0  0  0  0  0
   11.4858   -6.2254    0.0000 C   0  0  0  0  0  0  0  0  0  0  0  0
   10.7746   -5.8066    0.0000 C   0  0  0  0  0  0  0  0  0  0  0  0
   10.0621   -6.2104    0.0000 C   0  0  0  0  0  0  0  0  0  0  0  0
   12.2018   -5.8219    0.0000 C   0  0  0  0  0  0  0  0  0  0  0  0
   12.9093   -6.2402    0.0000 C   0  0  0  0  0  0  0  0  0  0  0  0
   12.2104   -5.0000    0.0000 C   0  0  0  0  0  0  0  0  0  0  0  0
 13 11  1  0  0  0  0
 11  4  1  0  0  0  0
  4 12  1  0  0  0  0
 12 14  1  0  0  0  0
 20  8  1  0  0  0  0
  4  3  1  0  0  0  0
 23 17  2  0  0  0  0
  7  8  1  0  0  0  0
 17 15  1  0  0  0  0
 22 23  1  0  0  0  0
  8 21  2  0  0  0  0
 15 18  2  0  0  0  0
 21  9  1  0  0  0  0
  6 25  2  0  0  0  0
  1  2  1  0  0  0  0
 18 24  1  0  0  0  0
  9 16  2  0  0  0  0
 24 22  2  0  0  0  0
 16 10  1  0  0  0  0
  5 13  1  0  0  0  0
  1 26  2  0  0  0  0
  5  7  1  0  0  0  0
 26 27  1  0  0  0  0
  3  6  1  0  0  0  0
 27 28  2  0  0  0  0
 15  7  1  0  0  0  0
 28 29  1  0  0  0  0
 22 19  1  0  0  0  0
 29 30  2  0  0  0  0
 30  1  1  0  0  0  0
 10 20  2  0  0  0  0
 28 31  1  0  0  0  0
  5 14  1  0  0  0  0
 31 32  1  0  0  0  0
  6  2  1  0  0  0  0
 31 33  1  0  0  0  0
M  END
> <Molecule Name>
DNDI1449908

> <CDD Number>
CDD-1535561

> <IC50_uM>
0.003 (n=1)

$$$$

SketchEl molfile

 31 34  0  0  0  0  0  0  0  0999 V2000
   10.0553   -6.2214    0.0000 C   0  0  0  0  0  0  0  0  0  0  0  0
    9.3396   -6.6235    0.0000 N   0  0  0  0  0  0  0  0  0  0  0  0
    7.9086   -6.5974    0.0000 N   0  0  0  0  0  0  0  0  0  0  0  0
    7.8935   -7.4236    0.0000 C   0  0  0  0  0  0  0  0  0  0  0  0
    7.8719   -9.0758    0.0000 N   0  0  0  0  0  0  0  0  0  0  0  0
    8.6316   -6.1973    0.0000 C   0  0  0  0  0  0  0  0  0  0  0  0
    7.8614   -9.9020    0.0000 C   0  0  0  0  0  0  0  0  0  0  0  0
    8.5802  -10.3075    0.0000 C   0  0  0  0  0  0  0  0  0  0  0  0
    9.2931  -11.5457    0.0000 N   0  0  0  0  0  0  0  0  0  0  0  0
   10.0030  -10.2986    0.0000 C   0  0  0  0  0  0  0  0  0  0  0  0
    8.5985   -7.8547    0.0000 C   0  0  0  0  0  0  0  0  0  0  0  0
    7.1693   -7.8309    0.0000 C   0  0  0  0  0  0  0  0  0  0  0  0
    8.5953   -8.6768    0.0000 C   0  0  0  0  0  0  0  0  0  0  0  0
    7.1548   -8.6600    0.0000 C   0  0  0  0  0  0  0  0  0  0  0  0
    7.1415  -10.3135    0.0000 C   0  0  0  0  0  0  0  0  0  0  0  0
   10.0095  -11.1296    0.0000 C   0  0  0  0  0  0  0  0  0  0  0  0
    7.1447  -11.1458    0.0000 C   0  0  0  0  0  0  0  0  0  0  0  0
    6.4281   -9.9087    0.0000 C   0  0  0  0  0  0  0  0  0  0  0  0
    5.0000  -11.5589    0.0000 Cl  0  0  0  0  0  0  0  0  0  0  0  0
    9.2846   -9.8927    0.0000 C   0  0  0  0  0  0  0  0  0  0  0  0
    8.5799  -11.1357    0.0000 C   0  0  0  0  0  0  0  0  0  0  0  0
    5.7127  -11.1464    0.0000 C   0  0  0  0  0  0  0  0  0  0  0  0
    6.4301  -11.5599    0.0000 C   0  0  0  0  0  0  0  0  0  0  0  0
    5.7140  -10.3175    0.0000 C   0  0  0  0  0  0  0  0  0  0  0  0
    8.6467   -5.3711    0.0000 O   0  0  0  0  0  0  0  0  0  0  0  0
   10.7590   -6.6417    0.0000 C   0  0  0  0  0  0  0  0  0  0  0  0
   11.4742   -6.2404    0.0000 C   0  0  0  0  0  0  0  0  0  0  0  0
   11.4843   -5.4187    0.0000 C   0  0  0  0  0  0  0  0  0  0  0  0
   10.7733   -5.0000    0.0000 C   0  0  0  0  0  0  0  0  0  0  0  0
   10.0610   -5.4038    0.0000 C   0  0  0  0  0  0  0  0  0  0  0  0
   12.2002   -5.0153    0.0000 Cl  0  0  0  0  0  0  0  0  0  0  0  0
 13 11  1  0  0  0  0
 11  4  1  0  0  0  0
  4 12  1  0  0  0  0
 12 14  1  0  0  0  0
 20  8  1  0  0  0  0
  4  3  1  0  0  0  0
 23 17  2  0  0  0  0
  7  8  1  0  0  0  0
 17 15  1  0  0  0  0
 22 23  1  0  0  0  0
  8 21  2  0  0  0  0
 15 18  2  0  0  0  0
 21  9  1  0  0  0  0
  6 25  2  0  0  0  0
  1  2  1  0  0  0  0
 18 24  1  0  0  0  0
  9 16  2  0  0  0  0
 24 22  2  0  0  0  0
 16 10  1  0  0  0  0
  5 13  1  0  0  0  0
  1 26  2  0  0  0  0
  5  7  1  0  0  0  0
 26 27  1  0  0  0  0
  3  6  1  0  0  0  0
 27 28  2  0  0  0  0
 15  7  1  0  0  0  0
 28 29  1  0  0  0  0
 22 19  1  0  0  0  0
 29 30  2  0  0  0  0
 30  1  1  0  0  0  0
 10 20  2  0  0  0  0
 28 31  1  0  0  0  0
  5 14  1  0  0  0  0
  6  2  1  0  0  0  0
M  END
> <Molecule Name>
DNDI1449909

> <CDD Number>
CDD-1535562

> <IC50_uM>
0.006 (n=1)

$$$$

SketchEl molfile

 30 33  0  0  0  0  0  0  0  0999 V2000
   12.1051   -6.2213    0.0000 C   0  0  0  0  0  0  0  0  0  0  0  0
   11.3895   -6.6233    0.0000 N   0  0  0  0  0  0  0  0  0  0  0  0
   10.6815   -6.1972    0.0000 C   0  0  0  0  0  0  0  0  0  0  0  0
   10.6966   -5.3711    0.0000 O   0  0  0  0  0  0  0  0  0  0  0  0
   12.8088   -6.6416    0.0000 C   0  0  0  0  0  0  0  0  0  0  0  0
   13.5239   -6.2403    0.0000 C   0  0  0  0  0  0  0  0  0  0  0  0
   13.5341   -5.4186    0.0000 C   0  0  0  0  0  0  0  0  0  0  0  0
   12.8231   -5.0000    0.0000 C   0  0  0  0  0  0  0  0  0  0  0  0
   12.1109   -5.4037    0.0000 C   0  0  0  0  0  0  0  0  0  0  0  0
    7.8589   -7.9157    0.0000 N   0  0  0  0  0  0  0  0  0  0  0  0
    8.5666   -7.4891    0.0000 C   0  0  0  0  0  0  0  0  0  0  0  0
    9.9773   -6.6289    0.0000 N   0  0  0  0  0  0  0  0  0  0  0  0
    8.5567   -6.6629    0.0000 C   0  0  0  0  0  0  0  0  0  0  0  0
    9.2966   -7.8858    0.0000 C   0  0  0  0  0  0  0  0  0  0  0  0
    9.2547   -6.2285    0.0000 C   0  0  0  0  0  0  0  0  0  0  0  0
   10.0064   -7.4573    0.0000 C   0  0  0  0  0  0  0  0  0  0  0  0
    7.8612   -8.7408    0.0000 C   0  0  0  0  0  0  0  0  0  0  0  0
    8.5799   -9.1463    0.0000 C   0  0  0  0  0  0  0  0  0  0  0  0
    9.2928  -10.3844    0.0000 N   0  0  0  0  0  0  0  0  0  0  0  0
   10.0026   -9.1374    0.0000 C   0  0  0  0  0  0  0  0  0  0  0  0
    7.1414   -9.1523    0.0000 C   0  0  0  0  0  0  0  0  0  0  0  0
   10.0091   -9.9683    0.0000 C   0  0  0  0  0  0  0  0  0  0  0  0
    7.1445   -9.9846    0.0000 C   0  0  0  0  0  0  0  0  0  0  0  0
    6.4280   -8.7476    0.0000 C   0  0  0  0  0  0  0  0  0  0  0  0
    5.0000  -10.3976    0.0000 Cl  0  0  0  0  0  0  0  0  0  0  0  0
    9.2843   -8.7316    0.0000 C   0  0  0  0  0  0  0  0  0  0  0  0
    8.5796   -9.9744    0.0000 C   0  0  0  0  0  0  0  0  0  0  0  0
    5.7127   -9.9851    0.0000 C   0  0  0  0  0  0  0  0  0  0  0  0
    6.4300  -10.3986    0.0000 C   0  0  0  0  0  0  0  0  0  0  0  0
    5.7140   -9.1563    0.0000 C   0  0  0  0  0  0  0  0  0  0  0  0
 11 10  1  0  0  0  0
 12 15  1  0  0  0  0
 12 16  1  0  0  0  0
  8  9  1  0  0  0  0
  9  1  1  0  0  0  0
  3  2  1  0  0  0  0
  3  4  2  0  0  0  0
  1  2  1  0  0  0  0
  1  5  1  0  0  0  0
  5  6  1  0  0  0  0
  6  7  1  0  0  0  0
  7  8  1  0  0  0  0
 15 13  1  0  0  0  0
 13 11  1  0  0  0  0
 11 14  1  0  0  0  0
 14 16  1  0  0  0  0
 26 18  1  0  0  0  0
 29 23  2  0  0  0  0
 17 18  1  0  0  0  0
 23 21  1  0  0  0  0
 28 29  1  0  0  0  0
 18 27  2  0  0  0  0
 21 24  2  0  0  0  0
 27 19  1  0  0  0  0
 24 30  1  0  0  0  0
 19 22  2  0  0  0  0
 30 28  2  0  0  0  0
 22 20  1  0  0  0  0
 21 17  1  0  0  0  0
 28 25  1  0  0  0  0
 20 26  2  0  0  0  0
 17 10  1  0  0  0  0
 12  3  1  0  0  0  0
M  END
> <Molecule Name>
DNDI1449910

> <CDD Number>
CDD-1535563

> <IC50_uM>
0.03 (n=1)

$$$$

SketchEl molfile

 27 29  0  0  0  0  0  0  0  0999 V2000
    7.8340   -9.4304    0.0000 N   0  0  0  0  0  0  0  0  0  0  0  0
    8.5354   -9.0076    0.0000 C   0  0  0  0  0  0  0  0  0  0  0  0
    9.2590   -9.4009    0.0000 O   0  0  0  0  0  0  0  0  0  0  0  0
    7.8362  -10.2484    0.0000 C   0  0  0  0  0  0  0  0  0  0  0  0
    8.5487  -10.6503    0.0000 C   0  0  0  0  0  0  0  0  0  0  0  0
    9.2553  -11.8777    0.0000 N   0  0  0  0  0  0  0  0  0  0  0  0
    9.9590  -10.6415    0.0000 C   0  0  0  0  0  0  0  0  0  0  0  0
    7.1227  -10.6562    0.0000 C   0  0  0  0  0  0  0  0  0  0  0  0
    9.9653  -11.4651    0.0000 C   0  0  0  0  0  0  0  0  0  0  0  0
    7.1258  -11.4813    0.0000 C   0  0  0  0  0  0  0  0  0  0  0  0
    6.4155  -10.2551    0.0000 C   0  0  0  0  0  0  0  0  0  0  0  0
    5.0000  -11.8907    0.0000 Cl  0  0  0  0  0  0  0  0  0  0  0  0
    9.2468  -10.2392    0.0000 C   0  0  0  0  0  0  0  0  0  0  0  0
    8.5484  -11.4712    0.0000 C   0  0  0  0  0  0  0  0  0  0  0  0
    5.7065  -11.4818    0.0000 C   0  0  0  0  0  0  0  0  0  0  0  0
    6.4175  -11.8917    0.0000 C   0  0  0  0  0  0  0  0  0  0  0  0
    5.7077  -10.6603    0.0000 C   0  0  0  0  0  0  0  0  0  0  0  0
    8.5172   -8.1888    0.0000 C   0  0  0  0  0  0  0  0  0  0  0  0
    9.2166   -7.7677    0.0000 C   0  0  0  0  0  0  0  0  0  0  0  0
    9.2003   -6.9524    0.0000 C   0  0  0  0  0  0  0  0  0  0  0  0
    8.4838   -6.5549    0.0000 N   0  0  0  0  0  0  0  0  0  0  0  0
    7.7819   -6.9790    0.0000 C   0  0  0  0  0  0  0  0  0  0  0  0
    7.7966   -7.8005    0.0000 C   0  0  0  0  0  0  0  0  0  0  0  0
    8.4686   -5.7356    0.0000 S   0  0  0  0  0  0  0  0  0  0  0  0
    9.0187   -5.0000    0.0000 O   0  0  0  0  0  0  0  0  0  0  0  0
    7.7515   -5.3391    0.0000 C   0  0  0  0  0  0  0  0  0  0  0  0
    9.3651   -5.7259    0.0000 O   0  0  0  0  0  0  0  0  0  0  0  0
 14  6  1  0  0  0  0
 11 17  1  0  0  0  0
  6  9  2  0  0  0  0
 17 15  2  0  0  0  0
  9  7  1  0  0  0  0
  8  4  1  0  0  0  0
 15 12  1  0  0  0  0
  7 13  2  0  0  0  0
  4  1  1  0  0  0  0
  2 18  1  0  0  0  0
 18 19  1  0  0  0  0
  2  1  1  0  0  0  0
  2  3  2  0  0  0  0
 13  5  1  0  0  0  0
 16 10  2  0  0  0  0
  4  5  1  0  0  0  0
 18 23  1  0  0  0  0
 19 20  1  0  0  0  0
 20 21  1  0  0  0  0
 21 22  1  0  0  0  0
 22 23  1  0  0  0  0
 10  8  1  0  0  0  0
 21 24  1  0  0  0  0
 15 16  1  0  0  0  0
 24 25  2  0  0  0  0
  5 14  2  0  0  0  0
 24 26  1  0  0  0  0
  8 11  2  0  0  0  0
 24 27  2  0  0  0  0
M  END
> <Molecule Name>
DNDI1449911

> <CDD Number>
CDD-1535564

> <IC50_uM>
6.09 (n=1)

$$$$

SketchEl molfile

 29 32  0  0  0  0  0  0  0  0999 V2000
   11.3809   -6.2506    0.0000 C   0  0  0  0  0  0  0  0  0  0  0  0
   10.6739   -5.8251    0.0000 C   0  0  0  0  0  0  0  0  0  0  0  0
   10.6889   -5.0000    0.0000 O   0  0  0  0  0  0  0  0  0  0  0  0
    7.8551   -7.5412    0.0000 N   0  0  0  0  0  0  0  0  0  0  0  0
    8.5618   -7.1152    0.0000 C   0  0  0  0  0  0  0  0  0  0  0  0
    9.9705   -6.2562    0.0000 N   0  0  0  0  0  0  0  0  0  0  0  0
    8.5519   -6.2901    0.0000 C   0  0  0  0  0  0  0  0  0  0  0  0
    9.2908   -7.5114    0.0000 C   0  0  0  0  0  0  0  0  0  0  0  0
    9.2490   -5.8564    0.0000 C   0  0  0  0  0  0  0  0  0  0  0  0
    9.9996   -7.0835    0.0000 C   0  0  0  0  0  0  0  0  0  0  0  0
    7.8574   -8.3653    0.0000 C   0  0  0  0  0  0  0  0  0  0  0  0
    8.5751   -8.7702    0.0000 C   0  0  0  0  0  0  0  0  0  0  0  0
    9.2870  -10.0067    0.0000 N   0  0  0  0  0  0  0  0  0  0  0  0
    9.9959   -8.7613    0.0000 C   0  0  0  0  0  0  0  0  0  0  0  0
    7.1385   -8.7761    0.0000 C   0  0  0  0  0  0  0  0  0  0  0  0
   10.0023   -9.5911    0.0000 C   0  0  0  0  0  0  0  0  0  0  0  0
    7.1417   -9.6073    0.0000 C   0  0  0  0  0  0  0  0  0  0  0  0
    6.4261   -8.3720    0.0000 C   0  0  0  0  0  0  0  0  0  0  0  0
    5.0000  -10.0198    0.0000 Cl  0  0  0  0  0  0  0  0  0  0  0  0
    9.2785   -8.3560    0.0000 C   0  0  0  0  0  0  0  0  0  0  0  0
    8.5748   -9.5972    0.0000 C   0  0  0  0  0  0  0  0  0  0  0  0
    5.7117   -9.6079    0.0000 C   0  0  0  0  0  0  0  0  0  0  0  0
    6.4281  -10.0208    0.0000 C   0  0  0  0  0  0  0  0  0  0  0  0
    5.7130   -8.7802    0.0000 C   0  0  0  0  0  0  0  0  0  0  0  0
   11.3611   -7.0756    0.0000 C   0  0  0  0  0  0  0  0  0  0  0  0
   12.0672   -7.5010    0.0000 C   0  0  0  0  0  0  0  0  0  0  0  0
   12.7902   -7.1015    0.0000 C   0  0  0  0  0  0  0  0  0  0  0  0
   12.8027   -6.2721    0.0000 C   0  0  0  0  0  0  0  0  0  0  0  0
   12.0959   -5.8504    0.0000 C   0  0  0  0  0  0  0  0  0  0  0  0
  2  3  2  0  0  0  0
  9  7  1  0  0  0  0
  7  5  1  0  0  0  0
  5  8  1  0  0  0  0
  8 10  1  0  0  0  0
 20 12  1  0  0  0  0
 23 17  2  0  0  0  0
 11 12  1  0  0  0  0
 17 15  1  0  0  0  0
 22 23  1  0  0  0  0
 12 21  2  0  0  0  0
 15 18  2  0  0  0  0
 21 13  1  0  0  0  0
 18 24  1  0  0  0  0
 13 16  2  0  0  0  0
 24 22  2  0  0  0  0
 16 14  1  0  0  0  0
 15 11  1  0  0  0  0
 22 19  1  0  0  0  0
 14 20  2  0  0  0  0
 11  4  1  0  0  0  0
  6  2  1  0  0  0  0
  1 25  2  0  0  0  0
  5  4  1  0  0  0  0
 25 26  1  0  0  0  0
  6  9  1  0  0  0  0
 26 27  2  0  0  0  0
  6 10  1  0  0  0  0
 27 28  1  0  0  0  0
  2  1  1  0  0  0  0
 28 29  2  0  0  0  0
 29  1  1  0  0  0  0
M  END
> <Molecule Name>
DNDI1454114

> <CDD Number>
CDD-1535565

> <IC50_uM>
0.084 (n=1)

$$$$

SketchEl molfile

 27 29  0  0  0  0  0  0  0  0999 V2000
    8.5689   -7.4730    0.0000 C   0  0  0  0  0  0  0  0  0  0  0  0
    8.5712   -8.2979    0.0000 C   0  0  0  0  0  0  0  0  0  0  0  0
    9.2897   -8.7031    0.0000 C   0  0  0  0  0  0  0  0  0  0  0  0
   10.0022   -9.9410    0.0000 N   0  0  0  0  0  0  0  0  0  0  0  0
   10.7119   -8.6943    0.0000 C   0  0  0  0  0  0  0  0  0  0  0  0
    7.8515   -8.7091    0.0000 C   0  0  0  0  0  0  0  0  0  0  0  0
   10.7184   -9.5249    0.0000 C   0  0  0  0  0  0  0  0  0  0  0  0
    7.8547   -9.5412    0.0000 C   0  0  0  0  0  0  0  0  0  0  0  0
    7.1385   -8.3046    0.0000 C   0  0  0  0  0  0  0  0  0  0  0  0
    9.9938   -8.2887    0.0000 C   0  0  0  0  0  0  0  0  0  0  0  0
    9.2893   -9.5311    0.0000 C   0  0  0  0  0  0  0  0  0  0  0  0
    6.4234   -9.5418    0.0000 C   0  0  0  0  0  0  0  0  0  0  0  0
    7.1405   -9.9551    0.0000 C   0  0  0  0  0  0  0  0  0  0  0  0
    6.4246   -8.7133    0.0000 C   0  0  0  0  0  0  0  0  0  0  0  0
    5.7135   -8.3001    0.0000 C   0  0  0  0  0  0  0  0  0  0  0  0
    5.7156   -7.4777    0.0000 O   0  0  0  0  0  0  0  0  0  0  0  0
    5.0000   -8.7095    0.0000 N   0  0  0  0  0  0  0  0  0  0  0  0
    9.2815   -7.0611    0.0000 C   0  0  0  0  0  0  0  0  0  0  0  0
    9.2795   -6.2370    0.0000 C   0  0  0  0  0  0  0  0  0  0  0  0
    8.5635   -5.8257    0.0000 C   0  0  0  0  0  0  0  0  0  0  0  0
    7.8479   -6.2446    0.0000 C   0  0  0  0  0  0  0  0  0  0  0  0
    7.8534   -7.0673    0.0000 C   0  0  0  0  0  0  0  0  0  0  0  0
    9.2798   -7.8828    0.0000 O   0  0  0  0  0  0  0  0  0  0  0  0
    8.5601   -5.0000    0.0000 C   0  0  0  0  0  0  0  0  0  0  0  0
    9.2735   -4.5841    0.0000 F   0  0  0  0  0  0  0  0  0  0  0  0
    7.8433   -4.5900    0.0000 F   0  0  0  0  0  0  0  0  0  0  0  0
    9.3586   -5.2103    0.0000 F   0  0  0  0  0  0  0  0  0  0  0  0
 20 24  1  0  0  0  0
 24 25  1  0  0  0  0
 24 26  1  0  0  0  0
 24 27  1  0  0  0  0
 10  3  1  0  0  0  0
 15 16  2  0  0  0  0
 13  8  2  0  0  0  0
 15 17  1  0  0  0  0
  2  3  1  0  0  0  0
  1 18  2  0  0  0  0
  8  6  1  0  0  0  0
 18 19  1  0  0  0  0
 12 13  1  0  0  0  0
 19 20  2  0  0  0  0
  3 11  2  0  0  0  0
 20 21  1  0  0  0  0
  6  9  2  0  0  0  0
 21 22  2  0  0  0  0
 22  1  1  0  0  0  0
 11  4  1  0  0  0  0
  2 23  1  0  0  0  0
  9 14  1  0  0  0  0
  4  7  2  0  0  0  0
 14 12  2  0  0  0  0
  7  5  1  0  0  0  0
  6  2  1  0  0  0  0
  5 10  2  0  0  0  0
  2  1  1  0  0  0  0
 14 15  1  0  0  0  0
M  END
> <Molecule Name>
DNDI1454115

> <CDD Number>
CDD-1535566

> <IC50_uM>
0.07 (n=1)

$$$$

SketchEl molfile

 31 33  0  0  0  0  0  0  0  0999 V2000
    5.7160   -8.7288    0.0000 C   0  0  0  0  0  0  0  0  0  0  0  0
    5.7148   -9.5562    0.0000 C   0  0  0  0  0  0  0  0  0  0  0  0
    6.4296   -9.9690    0.0000 C   0  0  0  0  0  0  0  0  0  0  0  0
    7.1460   -9.5557    0.0000 C   0  0  0  0  0  0  0  0  0  0  0  0
    7.1431   -8.7252    0.0000 C   0  0  0  0  0  0  0  0  0  0  0  0
    6.4278   -8.3161    0.0000 C   0  0  0  0  0  0  0  0  0  0  0  0
    7.8560   -8.3101    0.0000 C   0  0  0  0  0  0  0  0  0  0  0  0
    8.5720   -8.7198    0.0000 C   0  0  0  0  0  0  0  0  0  0  0  0
    7.8528   -7.4851    0.0000 N   0  0  0  0  0  0  0  0  0  0  0  0
    8.5658   -7.0699    0.0000 C   0  0  0  0  0  0  0  0  0  0  0  0
    9.2768   -7.4826    0.0000 C   0  0  0  0  0  0  0  0  0  0  0  0
    9.9876   -7.0709    0.0000 C   0  0  0  0  0  0  0  0  0  0  0  0
    9.9887   -6.2456    0.0000 N   0  0  0  0  0  0  0  0  0  0  0  0
    9.2728   -5.8336    0.0000 C   0  0  0  0  0  0  0  0  0  0  0  0
    8.5559   -6.2470    0.0000 C   0  0  0  0  0  0  0  0  0  0  0  0
    8.5717   -9.5424    0.0000 C   0  0  0  0  0  0  0  0  0  0  0  0
    9.2868   -9.9521    0.0000 N   0  0  0  0  0  0  0  0  0  0  0  0
   10.0007   -9.5369    0.0000 C   0  0  0  0  0  0  0  0  0  0  0  0
    9.9949   -8.7077    0.0000 C   0  0  0  0  0  0  0  0  0  0  0  0
    9.2792   -8.3018    0.0000 C   0  0  0  0  0  0  0  0  0  0  0  0
   10.7031   -5.8331    0.0000 C   0  0  0  0  0  0  0  0  0  0  0  0
   11.4176   -6.2457    0.0000 O   0  0  0  0  0  0  0  0  0  0  0  0
   10.7031   -5.0082    0.0000 O   0  0  0  0  0  0  0  0  0  0  0  0
   12.1294   -5.8249    0.0000 C   0  0  0  0  0  0  0  0  0  0  0  0
   12.8481   -6.2301    0.0000 C   0  0  0  0  0  0  0  0  0  0  0  0
   12.1210   -5.0000    0.0000 C   0  0  0  0  0  0  0  0  0  0  0  0
   12.3511   -6.6195    0.0000 C   0  0  0  0  0  0  0  0  0  0  0  0
    5.0000   -9.9681    0.0000 C   0  0  0  0  0  0  0  0  0  0  0  0
    4.2859   -9.5550    0.0000 F   0  0  0  0  0  0  0  0  0  0  0  0
    4.9994  -10.7930    0.0000 F   0  0  0  0  0  0  0  0  0  0  0  0
    4.7872   -9.1710    0.0000 F   0  0  0  0  0  0  0  0  0  0  0  0
  2 28  1  0  0  0  0
 28 29  1  0  0  0  0
 28 30  1  0  0  0  0
 28 31  1  0  0  0  0
 13 14  1  0  0  0  0
 14 15  1  0  0  0  0
  8 16  2  0  0  0  0
  3  4  2  0  0  0  0
 16 17  1  0  0  0  0
  7  8  1  0  0  0  0
 17 18  2  0  0  0  0
 18 19  1  0  0  0  0
  7  9  1  0  0  0  0
 19 20  2  0  0  0  0
 20  8  1  0  0  0  0
  4  5  1  0  0  0  0
 13 21  1  0  0  0  0
  9 10  1  0  0  0  0
 21 22  1  0  0  0  0
 10 11  1  0  0  0  0
 21 23  2  0  0  0  0
  2  3  1  0  0  0  0
 22 24  1  0  0  0  0
  5  6  2  0  0  0  0
 24 25  1  0  0  0  0
  6  1  1  0  0  0  0
 24 26  1  0  0  0  0
  1  2  2  0  0  0  0
 24 27  1  0  0  0  0
  5  7  1  0  0  0  0
 10 15  1  0  0  0  0
 11 12  1  0  0  0  0
 12 13  1  0  0  0  0
M  END
> <Molecule Name>
DNDI1454116

> <CDD Number>
CDD-1535567

> <IC50_uM>
0.015 (n=1)

$$$$

SketchEl molfile

 28 30  0  0  0  0  0  0  0  0999 V2000
    8.5671   -5.8293    0.0000 C   0  0  0  0  0  0  0  0  0  0  0  0
    7.8545   -8.7130    0.0000 N   0  0  0  0  0  0  0  0  0  0  0  0
    7.8587   -9.5381    0.0000 C   0  0  0  0  0  0  0  0  0  0  0  0
    8.5755   -9.9465    0.0000 C   0  0  0  0  0  0  0  0  0  0  0  0
    7.8545   -6.2419    0.0000 N   0  0  0  0  0  0  0  0  0  0  0  0
    9.2839   -6.2419    0.0000 O   0  0  0  0  0  0  0  0  0  0  0  0
    7.1461   -9.9549    0.0000 C   0  0  0  0  0  0  0  0  0  0  0  0
    7.1378   -8.3088    0.0000 C   0  0  0  0  0  0  0  0  0  0  0  0
    8.5671   -8.3005    0.0000 C   0  0  0  0  0  0  0  0  0  0  0  0
    9.9965   -9.9340    0.0000 N   0  0  0  0  0  0  0  0  0  0  0  0
    9.2881  -11.1800    0.0000 N   0  0  0  0  0  0  0  0  0  0  0  0
    8.5671   -5.0042    0.0000 O   0  0  0  0  0  0  0  0  0  0  0  0
   10.0048  -10.7633    0.0000 C   0  0  0  0  0  0  0  0  0  0  0  0
    9.9965   -5.8252    0.0000 C   0  0  0  0  0  0  0  0  0  0  0  0
    7.1378   -7.4795    0.0000 C   0  0  0  0  0  0  0  0  0  0  0  0
    8.5671   -7.4795    0.0000 C   0  0  0  0  0  0  0  0  0  0  0  0
    6.4294   -9.5423    0.0000 C   0  0  0  0  0  0  0  0  0  0  0  0
    7.1461  -10.7841    0.0000 C   0  0  0  0  0  0  0  0  0  0  0  0
    7.8545   -7.0670    0.0000 C   0  0  0  0  0  0  0  0  0  0  0  0
    5.7168  -10.7841    0.0000 C   0  0  0  0  0  0  0  0  0  0  0  0
    9.2797   -9.5298    0.0000 C   0  0  0  0  0  0  0  0  0  0  0  0
    8.5755  -10.7716    0.0000 C   0  0  0  0  0  0  0  0  0  0  0  0
    6.4294  -11.1967    0.0000 C   0  0  0  0  0  0  0  0  0  0  0  0
    5.7168   -9.9549    0.0000 C   0  0  0  0  0  0  0  0  0  0  0  0
    5.0000  -11.1967    0.0000 Cl  0  0  0  0  0  0  0  0  0  0  0  0
   10.7133   -6.2294    0.0000 C   0  0  0  0  0  0  0  0  0  0  0  0
    9.9882   -5.0000    0.0000 C   0  0  0  0  0  0  0  0  0  0  0  0
   10.2132   -6.6169    0.0000 C   0  0  0  0  0  0  0  0  0  0  0  0
  2  8  1  0  0  0  0
  3  2  1  0  0  0  0
  4  3  1  0  0  0  0
  5  1  1  0  0  0  0
  6  1  1  0  0  0  0
  7  3  1  0  0  0  0
  8 15  1  0  0  0  0
  9 16  1  0  0  0  0
 10 21  2  0  0  0  0
 11 22  1  0  0  0  0
 12  1  2  0  0  0  0
 13 10  1  0  0  0  0
 14  6  1  0  0  0  0
 15 19  1  0  0  0  0
 16 19  1  0  0  0  0
 17  7  2  0  0  0  0
 18  7  1  0  0  0  0
 19  5  1  0  0  0  0
 20 24  2  0  0  0  0
 21  4  1  0  0  0  0
 22  4  2  0  0  0  0
 23 18  2  0  0  0  0
 24 17  1  0  0  0  0
 25 20  1  0  0  0  0
 26 14  1  0  0  0  0
 27 14  1  0  0  0  0
 28 14  1  0  0  0  0
  9  2  1  0  0  0  0
 23 20  1  0  0  0  0
 13 11  2  0  0  0  0
M  END
> <Molecule Name>
DNDI1454117

> <CDD Number>
CDD-1535568

> <IC50_uM>
0.06 (n=1)

$$$$

SketchEl molfile

 27 30  0  0  0  0  0  0  0  0999 V2000
    8.5172   -5.7835    0.0000 S   0  0  0  0  0  0  0  0  0  0  0  0
    7.8546   -6.2710    0.0000 N   0  0  0  0  0  0  0  0  0  0  0  0
    7.8546   -8.7423    0.0000 N   0  0  0  0  0  0  0  0  0  0  0  0
    9.2257   -5.3667    0.0000 O   0  0  0  0  0  0  0  0  0  0  0  0
    9.1007   -6.3669    0.0000 O   0  0  0  0  0  0  0  0  0  0  0  0
    7.8588   -9.5674    0.0000 C   0  0  0  0  0  0  0  0  0  0  0  0
    7.8546   -7.0962    0.0000 C   0  0  0  0  0  0  0  0  0  0  0  0
    8.5672   -7.5087    0.0000 C   0  0  0  0  0  0  0  0  0  0  0  0
    7.1378   -7.5087    0.0000 C   0  0  0  0  0  0  0  0  0  0  0  0
    8.5756   -9.9758    0.0000 C   0  0  0  0  0  0  0  0  0  0  0  0
    8.5672   -8.3297    0.0000 C   0  0  0  0  0  0  0  0  0  0  0  0
    7.1378   -8.3380    0.0000 C   0  0  0  0  0  0  0  0  0  0  0  0
    7.1462   -9.9841    0.0000 C   0  0  0  0  0  0  0  0  0  0  0  0
    8.2630   -5.0000    0.0000 C   0  0  0  0  0  0  0  0  0  0  0  0
    9.2882  -11.2093    0.0000 N   0  0  0  0  0  0  0  0  0  0  0  0
    7.1462  -10.8134    0.0000 C   0  0  0  0  0  0  0  0  0  0  0  0
    6.4294   -9.5716    0.0000 C   0  0  0  0  0  0  0  0  0  0  0  0
    7.1837   -5.7835    0.0000 C   0  0  0  0  0  0  0  0  0  0  0  0
    7.4379   -5.0000    0.0000 C   0  0  0  0  0  0  0  0  0  0  0  0
    5.7168  -10.8134    0.0000 C   0  0  0  0  0  0  0  0  0  0  0  0
    6.4294  -11.2260    0.0000 C   0  0  0  0  0  0  0  0  0  0  0  0
    5.7168   -9.9883    0.0000 C   0  0  0  0  0  0  0  0  0  0  0  0
    5.0000  -11.2260    0.0000 Cl  0  0  0  0  0  0  0  0  0  0  0  0
    8.5756  -10.8009    0.0000 C   0  0  0  0  0  0  0  0  0  0  0  0
    9.2798   -9.5591    0.0000 C   0  0  0  0  0  0  0  0  0  0  0  0
   10.0050  -10.7926    0.0000 C   0  0  0  0  0  0  0  0  0  0  0  0
    9.9966   -9.9633    0.0000 C   0  0  0  0  0  0  0  0  0  0  0  0
  2  1  1  0  0  0  0
  3 12  1  0  0  0  0
  4  1  2  0  0  0  0
  5  1  2  0  0  0  0
  6  3  1  0  0  0  0
  7  2  1  0  0  0  0
  8  7  1  0  0  0  0
  9  7  1  0  0  0  0
 10  6  1  0  0  0  0
 11  8  1  0  0  0  0
 12  9  1  0  0  0  0
 13  6  1  0  0  0  0
 14  1  1  0  0  0  0
 15 24  1  0  0  0  0
 16 13  1  0  0  0  0
 17 13  2  0  0  0  0
 18  2  1  0  0  0  0
 19 14  1  0  0  0  0
 20 22  2  0  0  0  0
 21 16  2  0  0  0  0
 22 17  1  0  0  0  0
 23 20  1  0  0  0  0
 24 10  2  0  0  0  0
 25 10  1  0  0  0  0
 26 27  1  0  0  0  0
 27 25  2  0  0  0  0
 18 19  1  0  0  0  0
 11  3  1  0  0  0  0
 21 20  1  0  0  0  0
 26 15  2  0  0  0  0
M  END
> <Molecule Name>
DNDI1454118

> <CDD Number>
CDD-1535569

> <IC50_uM>
0.017 (n=1)

$$$$

SketchEl molfile

 28 30  0  0  0  0  0  0  0  0999 V2000
    7.8545   -8.7130    0.0000 N   0  0  0  0  0  0  0  0  0  0  0  0
    8.5671   -5.8293    0.0000 C   0  0  0  0  0  0  0  0  0  0  0  0
    7.8587   -9.5381    0.0000 C   0  0  0  0  0  0  0  0  0  0  0  0
    7.8545   -6.2419    0.0000 N   0  0  0  0  0  0  0  0  0  0  0  0
    8.5755   -9.9465    0.0000 C   0  0  0  0  0  0  0  0  0  0  0  0
    7.1461   -9.9549    0.0000 C   0  0  0  0  0  0  0  0  0  0  0  0
    8.5671   -8.3005    0.0000 C   0  0  0  0  0  0  0  0  0  0  0  0
    7.1378   -8.3088    0.0000 C   0  0  0  0  0  0  0  0  0  0  0  0
    8.5671   -5.0042    0.0000 O   0  0  0  0  0  0  0  0  0  0  0  0
    9.2881  -11.1800    0.0000 N   0  0  0  0  0  0  0  0  0  0  0  0
    9.2839   -6.2419    0.0000 C   0  0  0  0  0  0  0  0  0  0  0  0
    7.1378   -7.4795    0.0000 C   0  0  0  0  0  0  0  0  0  0  0  0
    8.5671   -7.4795    0.0000 C   0  0  0  0  0  0  0  0  0  0  0  0
    9.9965   -5.8252    0.0000 C   0  0  0  0  0  0  0  0  0  0  0  0
    6.4294   -9.5423    0.0000 C   0  0  0  0  0  0  0  0  0  0  0  0
    7.1461  -10.7841    0.0000 C   0  0  0  0  0  0  0  0  0  0  0  0
    7.8545   -7.0670    0.0000 C   0  0  0  0  0  0  0  0  0  0  0  0
    5.7168  -10.7841    0.0000 C   0  0  0  0  0  0  0  0  0  0  0  0
    6.4294  -11.1967    0.0000 C   0  0  0  0  0  0  0  0  0  0  0  0
    5.7168   -9.9549    0.0000 C   0  0  0  0  0  0  0  0  0  0  0  0
    5.0000  -11.1967    0.0000 Cl  0  0  0  0  0  0  0  0  0  0  0  0
    8.5755  -10.7716    0.0000 C   0  0  0  0  0  0  0  0  0  0  0  0
    9.2797   -9.5298    0.0000 C   0  0  0  0  0  0  0  0  0  0  0  0
   10.0048  -10.7633    0.0000 C   0  0  0  0  0  0  0  0  0  0  0  0
    9.9882   -5.0000    0.0000 C   0  0  0  0  0  0  0  0  0  0  0  0
   10.2132   -6.6169    0.0000 C   0  0  0  0  0  0  0  0  0  0  0  0
   10.7133   -6.2294    0.0000 C   0  0  0  0  0  0  0  0  0  0  0  0
    9.9965   -9.9340    0.0000 C   0  0  0  0  0  0  0  0  0  0  0  0
  2  4  1  0  0  0  0
  3  1  1  0  0  0  0
  4 17  1  0  0  0  0
  5  3  1  0  0  0  0
  6  3  1  0  0  0  0
  7  1  1  0  0  0  0
  8  1  1  0  0  0  0
  9  2  2  0  0  0  0
 10 22  1  0  0  0  0
 11  2  1  0  0  0  0
 12  8  1  0  0  0  0
 13  7  1  0  0  0  0
 14 11  1  0  0  0  0
 15  6  2  0  0  0  0
 16  6  1  0  0  0  0
 17 12  1  0  0  0  0
 18 20  2  0  0  0  0
 19 16  2  0  0  0  0
 20 15  1  0  0  0  0
 21 18  1  0  0  0  0
 22  5  2  0  0  0  0
 23  5  1  0  0  0  0
 24 10  2  0  0  0  0
 25 14  1  0  0  0  0
 26 14  1  0  0  0  0
 27 14  1  0  0  0  0
 28 23  2  0  0  0  0
 17 13  1  0  0  0  0
 28 24  1  0  0  0  0
 19 18  1  0  0  0  0
M  END
> <Molecule Name>
DNDI1454119

> <CDD Number>
CDD-1535570

> <IC50_uM>
0.0088 (n=1)

$$$$

SketchEl molfile

 27 29  0  0  0  0  0  0  0  0999 V2000
    7.8587   -9.9548    0.0000 C   0  0  0  0  0  0  0  0  0  0  0  0
    7.8545   -9.1297    0.0000 C   0  0  0  0  0  0  0  0  0  0  0  0
    7.8504   -7.4837    0.0000 C   0  0  0  0  0  0  0  0  0  0  0  0
    8.5671   -7.8962    0.0000 N   0  0  0  0  0  0  0  0  0  0  0  0
    7.1336   -7.9046    0.0000 N   0  0  0  0  0  0  0  0  0  0  0  0
    8.5755  -10.3632    0.0000 C   0  0  0  0  0  0  0  0  0  0  0  0
    7.1461  -10.3716    0.0000 C   0  0  0  0  0  0  0  0  0  0  0  0
    8.5713   -8.7172    0.0000 C   0  0  0  0  0  0  0  0  0  0  0  0
    7.1420   -8.7255    0.0000 C   0  0  0  0  0  0  0  0  0  0  0  0
    7.8462   -6.6586    0.0000 O   0  0  0  0  0  0  0  0  0  0  0  0
    9.2881  -11.5967    0.0000 N   0  0  0  0  0  0  0  0  0  0  0  0
    7.1461  -11.2008    0.0000 C   0  0  0  0  0  0  0  0  0  0  0  0
    6.4294   -9.9590    0.0000 C   0  0  0  0  0  0  0  0  0  0  0  0
    7.8545  -10.7758    0.0000 O   0  0  0  0  0  0  0  0  0  0  0  0
    8.5588   -6.2418    0.0000 C   0  0  0  0  0  0  0  0  0  0  0  0
    5.7168  -11.2008    0.0000 C   0  0  0  0  0  0  0  0  0  0  0  0
    6.4294  -11.6134    0.0000 C   0  0  0  0  0  0  0  0  0  0  0  0
    5.7168  -10.3716    0.0000 C   0  0  0  0  0  0  0  0  0  0  0  0
    8.5755  -11.1883    0.0000 C   0  0  0  0  0  0  0  0  0  0  0  0
    5.0000  -11.6134    0.0000 Cl  0  0  0  0  0  0  0  0  0  0  0  0
    9.9882   -6.2377    0.0000 F   0  0  0  0  0  0  0  0  0  0  0  0
    9.2672   -5.0000    0.0000 F   0  0  0  0  0  0  0  0  0  0  0  0
    9.2797   -9.9465    0.0000 C   0  0  0  0  0  0  0  0  0  0  0  0
   10.0048  -11.1800    0.0000 C   0  0  0  0  0  0  0  0  0  0  0  0
    8.5546   -5.4167    0.0000 C   0  0  0  0  0  0  0  0  0  0  0  0
    9.2756   -6.6502    0.0000 C   0  0  0  0  0  0  0  0  0  0  0  0
    9.9965  -10.3507    0.0000 C   0  0  0  0  0  0  0  0  0  0  0  0
  2  1  1  0  0  0  0
  3  5  1  0  0  0  0
  4  8  1  0  0  0  0
  5  9  2  0  0  0  0
  6  1  1  0  0  0  0
  7  1  1  0  0  0  0
  8  2  2  0  0  0  0
  9  2  1  0  0  0  0
 10  3  1  0  0  0  0
 11 19  1  0  0  0  0
 12  7  1  0  0  0  0
 13  7  2  0  0  0  0
 14  1  1  0  0  0  0
 15 10  1  0  0  0  0
 16 18  2  0  0  0  0
 17 12  2  0  0  0  0
 18 13  1  0  0  0  0
 19  6  2  0  0  0  0
 20 16  1  0  0  0  0
 21 26  1  0  0  0  0
 22 25  1  0  0  0  0
 23  6  1  0  0  0  0
 24 11  2  0  0  0  0
 25 15  1  0  0  0  0
 26 15  1  0  0  0  0
 27 23  2  0  0  0  0
  3  4  2  0  0  0  0
 27 24  1  0  0  0  0
 17 16  1  0  0  0  0
M  END
> <Molecule Name>
DNDI1454120

> <CDD Number>
CDD-1535571

> <IC50_uM>
0.032 (n=1)

$$$$

SketchEl molfile

 26 29  0  0  0  0  0  0  0  0999 V2000
   11.3807   -6.2505    0.0000 C   0  0  0  0  0  0  0  0  0  0  0  0
   10.6737   -5.8250    0.0000 C   0  0  0  0  0  0  0  0  0  0  0  0
   10.6887   -5.0000    0.0000 O   0  0  0  0  0  0  0  0  0  0  0  0
    7.8550   -7.5411    0.0000 N   0  0  0  0  0  0  0  0  0  0  0  0
    8.5617   -7.1151    0.0000 C   0  0  0  0  0  0  0  0  0  0  0  0
    9.9704   -6.2561    0.0000 N   0  0  0  0  0  0  0  0  0  0  0  0
    8.5518   -6.2900    0.0000 C   0  0  0  0  0  0  0  0  0  0  0  0
    9.2906   -7.5113    0.0000 C   0  0  0  0  0  0  0  0  0  0  0  0
    9.2488   -5.8563    0.0000 C   0  0  0  0  0  0  0  0  0  0  0  0
    9.9995   -7.0834    0.0000 C   0  0  0  0  0  0  0  0  0  0  0  0
    7.8573   -8.3651    0.0000 C   0  0  0  0  0  0  0  0  0  0  0  0
    8.5750   -8.7700    0.0000 C   0  0  0  0  0  0  0  0  0  0  0  0
    9.2868  -10.0065    0.0000 N   0  0  0  0  0  0  0  0  0  0  0  0
    9.9957   -8.7611    0.0000 C   0  0  0  0  0  0  0  0  0  0  0  0
    7.1384   -8.7760    0.0000 C   0  0  0  0  0  0  0  0  0  0  0  0
   10.0022   -9.5909    0.0000 C   0  0  0  0  0  0  0  0  0  0  0  0
    7.1416   -9.6071    0.0000 C   0  0  0  0  0  0  0  0  0  0  0  0
    6.4260   -8.3718    0.0000 C   0  0  0  0  0  0  0  0  0  0  0  0
    5.0000  -10.0196    0.0000 Cl  0  0  0  0  0  0  0  0  0  0  0  0
    9.2784   -8.3559    0.0000 C   0  0  0  0  0  0  0  0  0  0  0  0
    8.5747   -9.5970    0.0000 C   0  0  0  0  0  0  0  0  0  0  0  0
    5.7117   -9.6077    0.0000 C   0  0  0  0  0  0  0  0  0  0  0  0
    6.4281  -10.0206    0.0000 C   0  0  0  0  0  0  0  0  0  0  0  0
    5.7130   -8.7800    0.0000 C   0  0  0  0  0  0  0  0  0  0  0  0
   11.7801   -6.9701    0.0000 C   0  0  0  0  0  0  0  0  0  0  0  0
   12.2056   -6.2631    0.0000 C   0  0  0  0  0  0  0  0  0  0  0  0
  9  7  1  0  0  0  0
  7  5  1  0  0  0  0
  5  8  1  0  0  0  0
  8 10  1  0  0  0  0
 20 12  1  0  0  0  0
 23 17  2  0  0  0  0
 11 12  1  0  0  0  0
 17 15  1  0  0  0  0
 22 23  1  0  0  0  0
 12 21  2  0  0  0  0
 15 18  2  0  0  0  0
 21 13  1  0  0  0  0
 18 24  1  0  0  0  0
 13 16  2  0  0  0  0
 24 22  2  0  0  0  0
 16 14  1  0  0  0  0
 15 11  1  0  0  0  0
 22 19  1  0  0  0  0
 14 20  2  0  0  0  0
 11  4  1  0  0  0  0
  6  2  1  0  0  0  0
  5  4  1  0  0  0  0
  6  9  1  0  0  0  0
  6 10  1  0  0  0  0
  2  1  1  0  0  0  0
 25  1  1  0  0  0  0
 26 25  1  0  0  0  0
  1 26  1  0  0  0  0
  2  3  2  0  0  0  0
M  END
> <Molecule Name>
DNDI1454121

> <CDD Number>
CDD-1535572

> <IC50_uM>
0.18 (n=1)

$$$$

SketchEl molfile

 28 30  0  0  0  0  0  0  0  0999 V2000
    8.5690   -8.7148    0.0000 C   0  0  0  0  0  0  0  0  0  0  0  0
    8.5713   -9.5397    0.0000 C   0  0  0  0  0  0  0  0  0  0  0  0
    9.2898   -9.9450    0.0000 C   0  0  0  0  0  0  0  0  0  0  0  0
   10.0024  -11.1828    0.0000 N   0  0  0  0  0  0  0  0  0  0  0  0
   10.7121   -9.9362    0.0000 C   0  0  0  0  0  0  0  0  0  0  0  0
    7.8516   -9.9510    0.0000 C   0  0  0  0  0  0  0  0  0  0  0  0
   10.7185  -10.7668    0.0000 C   0  0  0  0  0  0  0  0  0  0  0  0
    7.8548  -10.7831    0.0000 C   0  0  0  0  0  0  0  0  0  0  0  0
    7.1385   -9.5464    0.0000 C   0  0  0  0  0  0  0  0  0  0  0  0
    9.9939   -9.5304    0.0000 C   0  0  0  0  0  0  0  0  0  0  0  0
    9.2895  -10.7730    0.0000 C   0  0  0  0  0  0  0  0  0  0  0  0
    6.4233  -10.7836    0.0000 C   0  0  0  0  0  0  0  0  0  0  0  0
    7.1405  -11.1970    0.0000 C   0  0  0  0  0  0  0  0  0  0  0  0
    6.4246   -9.9551    0.0000 C   0  0  0  0  0  0  0  0  0  0  0  0
    5.7134   -9.5419    0.0000 C   0  0  0  0  0  0  0  0  0  0  0  0
    5.7156   -8.7194    0.0000 O   0  0  0  0  0  0  0  0  0  0  0  0
    5.0000   -9.9513    0.0000 N   0  0  0  0  0  0  0  0  0  0  0  0
    9.2816   -8.3029    0.0000 C   0  0  0  0  0  0  0  0  0  0  0  0
    9.2797   -7.4787    0.0000 C   0  0  0  0  0  0  0  0  0  0  0  0
    8.5636   -7.0675    0.0000 C   0  0  0  0  0  0  0  0  0  0  0  0
    7.8480   -7.4863    0.0000 C   0  0  0  0  0  0  0  0  0  0  0  0
    7.8534   -8.3091    0.0000 C   0  0  0  0  0  0  0  0  0  0  0  0
    9.2798   -9.1245    0.0000 O   0  0  0  0  0  0  0  0  0  0  0  0
    9.9925   -7.0650    0.0000 F   0  0  0  0  0  0  0  0  0  0  0  0
    8.5602   -6.2416    0.0000 O   0  0  0  0  0  0  0  0  0  0  0  0
    9.2736   -5.8258    0.0000 C   0  0  0  0  0  0  0  0  0  0  0  0
    9.2702   -5.0000    0.0000 C   0  0  0  0  0  0  0  0  0  0  0  0
    9.9905   -6.2357    0.0000 C   0  0  0  0  0  0  0  0  0  0  0  0
  5 10  2  0  0  0  0
  2  1  1  0  0  0  0
 14 15  1  0  0  0  0
 10  3  1  0  0  0  0
 15 16  2  0  0  0  0
 13  8  2  0  0  0  0
 15 17  1  0  0  0  0
  2  3  1  0  0  0  0
  1 18  2  0  0  0  0
  8  6  1  0  0  0  0
 18 19  1  0  0  0  0
 12 13  1  0  0  0  0
 19 20  2  0  0  0  0
  3 11  2  0  0  0  0
 20 21  1  0  0  0  0
  6  9  2  0  0  0  0
 21 22  2  0  0  0  0
 22  1  1  0  0  0  0
 11  4  1  0  0  0  0
  2 23  1  0  0  0  0
  9 14  1  0  0  0  0
 19 24  1  0  0  0  0
  4  7  2  0  0  0  0
 20 25  1  0  0  0  0
 14 12  2  0  0  0  0
 25 26  1  0  0  0  0
  7  5  1  0  0  0  0
 26 27  1  0  0  0  0
  6  2  1  0  0  0  0
 26 28  1  0  0  0  0
M  END
> <Molecule Name>
DNDI1454122

> <CDD Number>
CDD-1535573

> <IC50_uM>
0.099 (n=1)

$$$$

SketchEl molfile

 28 30  0  0  0  0  0  0  0  0999 V2000
    8.5701   -5.8331    0.0000 C   0  0  0  0  0  0  0  0  0  0  0  0
    7.8535   -8.7200    0.0000 N   0  0  0  0  0  0  0  0  0  0  0  0
    7.8577   -9.5448    0.0000 C   0  0  0  0  0  0  0  0  0  0  0  0
    7.8577   -6.2456    0.0000 N   0  0  0  0  0  0  0  0  0  0  0  0
    9.2824   -6.2456    0.0000 O   0  0  0  0  0  0  0  0  0  0  0  0
    8.5742   -9.9531    0.0000 C   0  0  0  0  0  0  0  0  0  0  0  0
    7.1454   -9.9614    0.0000 C   0  0  0  0  0  0  0  0  0  0  0  0
    7.1412   -8.3118    0.0000 C   0  0  0  0  0  0  0  0  0  0  0  0
    8.5701   -8.3076    0.0000 C   0  0  0  0  0  0  0  0  0  0  0  0
    8.5701   -5.0083    0.0000 O   0  0  0  0  0  0  0  0  0  0  0  0
    9.2866  -11.1861    0.0000 N   0  0  0  0  0  0  0  0  0  0  0  0
    9.9947   -5.8248    0.0000 C   0  0  0  0  0  0  0  0  0  0  0  0
    8.5701   -7.4869    0.0000 C   0  0  0  0  0  0  0  0  0  0  0  0
    7.1412   -7.4869    0.0000 C   0  0  0  0  0  0  0  0  0  0  0  0
    6.4289   -9.5490    0.0000 C   0  0  0  0  0  0  0  0  0  0  0  0
    7.1454  -10.7904    0.0000 C   0  0  0  0  0  0  0  0  0  0  0  0
    7.8577   -7.0704    0.0000 C   0  0  0  0  0  0  0  0  0  0  0  0
    5.7165  -10.7904    0.0000 C   0  0  0  0  0  0  0  0  0  0  0  0
    6.4289  -11.2028    0.0000 C   0  0  0  0  0  0  0  0  0  0  0  0
    5.7165   -9.9614    0.0000 C   0  0  0  0  0  0  0  0  0  0  0  0
    5.0000  -11.2028    0.0000 Cl  0  0  0  0  0  0  0  0  0  0  0  0
    8.5742  -10.7779    0.0000 C   0  0  0  0  0  0  0  0  0  0  0  0
    9.2782   -9.5365    0.0000 C   0  0  0  0  0  0  0  0  0  0  0  0
   10.0031  -10.7696    0.0000 C   0  0  0  0  0  0  0  0  0  0  0  0
    9.9864   -5.0000    0.0000 C   0  0  0  0  0  0  0  0  0  0  0  0
   10.2114   -6.6205    0.0000 C   0  0  0  0  0  0  0  0  0  0  0  0
   10.7113   -6.2372    0.0000 C   0  0  0  0  0  0  0  0  0  0  0  0
    9.9947   -9.9406    0.0000 C   0  0  0  0  0  0  0  0  0  0  0  0
  2  8  1  0  0  0  0
  3  2  1  0  0  0  0
  4  1  1  0  0  0  0
  5  1  1  0  0  0  0
  6  3  1  0  0  0  0
  7  3  1  0  0  0  0
  8 14  1  0  0  0  0
  9 13  1  0  0  0  0
 10  1  2  0  0  0  0
 11 22  1  0  0  0  0
 12  5  1  0  0  0  0
 13 17  1  0  0  0  0
 14 17  1  0  0  0  0
 15  7  2  0  0  0  0
 16  7  1  0  0  0  0
 17  4  1  0  0  0  0
 18 20  2  0  0  0  0
 19 16  2  0  0  0  0
 20 15  1  0  0  0  0
 21 18  1  0  0  0  0
 22  6  2  0  0  0  0
 23  6  1  0  0  0  0
 24 11  2  0  0  0  0
 25 12  1  0  0  0  0
 26 12  1  0  0  0  0
 27 12  1  0  0  0  0
 28 23  2  0  0  0  0
  9  2  1  0  0  0  0
 28 24  1  0  0  0  0
 19 18  1  0  0  0  0
M  END
> <Molecule Name>
DNDI1454123

> <CDD Number>
CDD-1535574

> <IC50_uM>
0.0085 (n=1)

$$$$

SketchEl molfile

 27 29  0  0  0  0  0  0  0  0999 V2000
    9.2829   -8.7121    0.0000 N   0  0  0  0  0  0  0  0  0  0  0  0
    9.9953   -8.2955    0.0000 C   0  0  0  0  0  0  0  0  0  0  0  0
    9.2871   -9.5370    0.0000 C   0  0  0  0  0  0  0  0  0  0  0  0
    9.9912   -7.4706    0.0000 C   0  0  0  0  0  0  0  0  0  0  0  0
   10.0037   -9.9453    0.0000 C   0  0  0  0  0  0  0  0  0  0  0  0
    8.5746   -9.9537    0.0000 C   0  0  0  0  0  0  0  0  0  0  0  0
   10.7119   -8.7080    0.0000 O   0  0  0  0  0  0  0  0  0  0  0  0
   10.7161  -11.1785    0.0000 N   0  0  0  0  0  0  0  0  0  0  0  0
   10.7036   -7.0581    0.0000 C   0  0  0  0  0  0  0  0  0  0  0  0
    9.2746   -7.0665    0.0000 C   0  0  0  0  0  0  0  0  0  0  0  0
    7.8580   -9.5412    0.0000 C   0  0  0  0  0  0  0  0  0  0  0  0
    8.5746  -10.7827    0.0000 C   0  0  0  0  0  0  0  0  0  0  0  0
    6.4290  -11.1952    0.0000 O   0  0  0  0  0  0  0  0  0  0  0  0
    7.1456  -10.7827    0.0000 C   0  0  0  0  0  0  0  0  0  0  0  0
    9.9870   -5.8249    0.0000 C   0  0  0  0  0  0  0  0  0  0  0  0
    7.1456   -9.9578    0.0000 C   0  0  0  0  0  0  0  0  0  0  0  0
    7.8580  -11.1952    0.0000 C   0  0  0  0  0  0  0  0  0  0  0  0
   10.7036   -6.2374    0.0000 C   0  0  0  0  0  0  0  0  0  0  0  0
    9.2704   -6.2457    0.0000 C   0  0  0  0  0  0  0  0  0  0  0  0
   10.0037  -10.7702    0.0000 C   0  0  0  0  0  0  0  0  0  0  0  0
    9.9828   -5.0000    0.0000 Cl  0  0  0  0  0  0  0  0  0  0  0  0
   10.7078   -9.5287    0.0000 C   0  0  0  0  0  0  0  0  0  0  0  0
    5.7166  -10.7827    0.0000 C   0  0  0  0  0  0  0  0  0  0  0  0
   11.4327  -10.7619    0.0000 C   0  0  0  0  0  0  0  0  0  0  0  0
   11.4243   -9.9328    0.0000 C   0  0  0  0  0  0  0  0  0  0  0  0
    5.0000  -11.1952    0.0000 C   0  0  0  0  0  0  0  0  0  0  0  0
    5.7166   -9.9578    0.0000 C   0  0  0  0  0  0  0  0  0  0  0  0
  2  1  1  0  0  0  0
  3  1  1  0  0  0  0
  4  2  1  0  0  0  0
  5  3  1  0  0  0  0
  6  3  1  0  0  0  0
  7  2  2  0  0  0  0
  8 20  1  0  0  0  0
  9  4  2  0  0  0  0
 10  4  1  0  0  0  0
 11  6  2  0  0  0  0
 12  6  1  0  0  0  0
 13 14  1  0  0  0  0
 14 16  2  0  0  0  0
 15 19  1  0  0  0  0
 16 11  1  0  0  0  0
 17 12  2  0  0  0  0
 18  9  1  0  0  0  0
 19 10  2  0  0  0  0
 20  5  2  0  0  0  0
 21 15  1  0  0  0  0
 22  5  1  0  0  0  0
 23 13  1  0  0  0  0
 24  8  2  0  0  0  0
 25 22  2  0  0  0  0
 26 23  1  0  0  0  0
 27 23  1  0  0  0  0
 15 18  2  0  0  0  0
 25 24  1  0  0  0  0
 17 14  1  0  0  0  0
M  END
> <Molecule Name>
DNDI1454124

> <CDD Number>
CDD-1535575

> <IC50_uM>
0.15 (n=1)

$$$$

SketchEl molfile

 29 32  0  0  0  0  0  0  0  0999 V2000
    8.5653   -6.0079    0.0000 C   0  0  0  0  0  0  0  0  0  0  0  0
    7.8531   -8.8901    0.0000 N   0  0  0  0  0  0  0  0  0  0  0  0
    7.8572   -9.7148    0.0000 C   0  0  0  0  0  0  0  0  0  0  0  0
    7.8531   -6.4202    0.0000 N   0  0  0  0  0  0  0  0  0  0  0  0
    9.2817   -6.4202    0.0000 N   0  0  0  0  0  0  0  0  0  0  0  0
    8.5736  -10.1230    0.0000 C   0  0  0  0  0  0  0  0  0  0  0  0
    7.1450  -10.1313    0.0000 C   0  0  0  0  0  0  0  0  0  0  0  0
    7.1367   -8.4861    0.0000 C   0  0  0  0  0  0  0  0  0  0  0  0
    8.5653   -8.4778    0.0000 C   0  0  0  0  0  0  0  0  0  0  0  0
    8.5653   -5.1832    0.0000 O   0  0  0  0  0  0  0  0  0  0  0  0
    9.2858  -11.3558    0.0000 N   0  0  0  0  0  0  0  0  0  0  0  0
    7.1367   -7.6573    0.0000 C   0  0  0  0  0  0  0  0  0  0  0  0
    8.5653   -7.6573    0.0000 C   0  0  0  0  0  0  0  0  0  0  0  0
    7.1450  -10.9602    0.0000 C   0  0  0  0  0  0  0  0  0  0  0  0
    6.4286   -9.7190    0.0000 C   0  0  0  0  0  0  0  0  0  0  0  0
    7.8531   -7.2449    0.0000 C   0  0  0  0  0  0  0  0  0  0  0  0
    5.7164  -10.9602    0.0000 C   0  0  0  0  0  0  0  0  0  0  0  0
    5.7164  -10.1313    0.0000 C   0  0  0  0  0  0  0  0  0  0  0  0
    6.4286  -11.3725    0.0000 C   0  0  0  0  0  0  0  0  0  0  0  0
    5.0000  -11.3725    0.0000 Cl  0  0  0  0  0  0  0  0  0  0  0  0
    8.5736  -10.9477    0.0000 C   0  0  0  0  0  0  0  0  0  0  0  0
    9.9939   -5.9996    0.0000 C   0  0  0  0  0  0  0  0  0  0  0  0
    9.2775   -9.7065    0.0000 C   0  0  0  0  0  0  0  0  0  0  0  0
   10.0022  -10.9393    0.0000 C   0  0  0  0  0  0  0  0  0  0  0  0
   10.0730   -5.1791    0.0000 C   0  0  0  0  0  0  0  0  0  0  0  0
   10.7478   -6.3328    0.0000 C   0  0  0  0  0  0  0  0  0  0  0  0
    9.9939  -10.1105    0.0000 C   0  0  0  0  0  0  0  0  0  0  0  0
   11.2976   -5.7122    0.0000 C   0  0  0  0  0  0  0  0  0  0  0  0
   10.8769   -5.0000    0.0000 C   0  0  0  0  0  0  0  0  0  0  0  0
  2  8  1  0  0  0  0
  3  2  1  0  0  0  0
  4  1  1  0  0  0  0
  5  1  1  0  0  0  0
  6  3  1  0  0  0  0
  7  3  1  0  0  0  0
  8 12  1  0  0  0  0
  9 13  1  0  0  0  0
 10  1  2  0  0  0  0
 11 21  1  0  0  0  0
 12 16  1  0  0  0  0
 13 16  1  0  0  0  0
 14  7  1  0  0  0  0
 15  7  2  0  0  0  0
 16  4  1  0  0  0  0
 17 18  2  0  0  0  0
 18 15  1  0  0  0  0
 19 14  2  0  0  0  0
 20 17  1  0  0  0  0
 21  6  2  0  0  0  0
 22  5  1  0  0  0  0
 23  6  1  0  0  0  0
 24 11  2  0  0  0  0
 25 22  1  0  0  0  0
 26 22  1  0  0  0  0
 27 23  2  0  0  0  0
 28 26  1  0  0  0  0
 29 25  1  0  0  0  0
 29 28  1  0  0  0  0
  9  2  1  0  0  0  0
 27 24  1  0  0  0  0
 19 17  1  0  0  0  0
M  END
> <Molecule Name>
DNDI1454125

> <CDD Number>
CDD-1535576

> <IC50_uM>
0.06 (n=1)

$$$$

SketchEl molfile

 22 24  0  0  0  0  0  0  0  0999 V2000
    7.8586   -8.2962    0.0000 C   0  0  0  0  0  0  0  0  0  0  0  0
    7.8545   -7.4711    0.0000 C   0  0  0  0  0  0  0  0  0  0  0  0
    7.8503   -5.8251    0.0000 C   0  0  0  0  0  0  0  0  0  0  0  0
    8.5670   -6.2376    0.0000 N   0  0  0  0  0  0  0  0  0  0  0  0
    7.1336   -6.2460    0.0000 N   0  0  0  0  0  0  0  0  0  0  0  0
    8.5754   -8.7046    0.0000 C   0  0  0  0  0  0  0  0  0  0  0  0
    7.1461   -8.7129    0.0000 C   0  0  0  0  0  0  0  0  0  0  0  0
    8.5712   -7.0586    0.0000 C   0  0  0  0  0  0  0  0  0  0  0  0
    7.1419   -7.0669    0.0000 C   0  0  0  0  0  0  0  0  0  0  0  0
    9.2880   -9.9380    0.0000 N   0  0  0  0  0  0  0  0  0  0  0  0
    6.4293   -8.3004    0.0000 C   0  0  0  0  0  0  0  0  0  0  0  0
    7.1461   -9.5422    0.0000 C   0  0  0  0  0  0  0  0  0  0  0  0
    7.8461   -5.0000    0.0000 N   0  0  0  0  0  0  0  0  0  0  0  0
    7.8545   -9.1171    0.0000 O   0  0  0  0  0  0  0  0  0  0  0  0
    5.7167   -9.5422    0.0000 C   0  0  0  0  0  0  0  0  0  0  0  0
    5.7167   -8.7129    0.0000 C   0  0  0  0  0  0  0  0  0  0  0  0
    6.4293   -9.9547    0.0000 C   0  0  0  0  0  0  0  0  0  0  0  0
    8.5754   -9.5297    0.0000 C   0  0  0  0  0  0  0  0  0  0  0  0
    5.0000   -9.9547    0.0000 Cl  0  0  0  0  0  0  0  0  0  0  0  0
    9.2796   -8.2879    0.0000 C   0  0  0  0  0  0  0  0  0  0  0  0
   10.0047   -9.5213    0.0000 C   0  0  0  0  0  0  0  0  0  0  0  0
    9.9964   -8.6921    0.0000 C   0  0  0  0  0  0  0  0  0  0  0  0
  2  1  1  0  0  0  0
  3  4  2  0  0  0  0
  4  8  1  0  0  0  0
  5  9  2  0  0  0  0
  6  1  1  0  0  0  0
  7  1  1  0  0  0  0
  8  2  2  0  0  0  0
  9  2  1  0  0  0  0
 10 18  1  0  0  0  0
 11  7  2  0  0  0  0
 12  7  1  0  0  0  0
 13  3  1  0  0  0  0
 14  1  1  0  0  0  0
 15 17  1  0  0  0  0
 16 11  1  0  0  0  0
 17 12  2  0  0  0  0
 18  6  2  0  0  0  0
 19 15  1  0  0  0  0
 20  6  1  0  0  0  0
 21 22  1  0  0  0  0
 22 20  2  0  0  0  0
  5  3  1  0  0  0  0
 15 16  2  0  0  0  0
 21 10  2  0  0  0  0
M  END
> <Molecule Name>
DNDI1454256

> <CDD Number>
CDD-1535577

> <IC50_uM>
0.29 (n=1)

$$$$

SketchEl molfile

 30 33  0  0  0  0  0  0  0  0999 V2000
    6.4289   -8.7118    0.0000 C   0  0  0  0  0  0  0  0  0  0  0  0
    5.7165   -8.3036    0.0000 C   0  0  0  0  0  0  0  0  0  0  0  0
    7.8578   -8.7118    0.0000 C   0  0  0  0  0  0  0  0  0  0  0  0
    7.1413   -8.2994    0.0000 C   0  0  0  0  0  0  0  0  0  0  0  0
    8.5702   -8.2953    0.0000 C   0  0  0  0  0  0  0  0  0  0  0  0
    5.7165   -7.4787    0.0000 N   0  0  0  0  0  0  0  0  0  0  0  0
    6.4289   -9.5409    0.0000 C   0  0  0  0  0  0  0  0  0  0  0  0
    9.2868   -8.7035    0.0000 C   0  0  0  0  0  0  0  0  0  0  0  0
    8.5660   -7.4704    0.0000 C   0  0  0  0  0  0  0  0  0  0  0  0
    5.0000   -8.7160    0.0000 O   0  0  0  0  0  0  0  0  0  0  0  0
    7.8578   -9.5409    0.0000 C   0  0  0  0  0  0  0  0  0  0  0  0
    9.9991   -9.9366    0.0000 N   0  0  0  0  0  0  0  0  0  0  0  0
    7.1413   -9.9533    0.0000 C   0  0  0  0  0  0  0  0  0  0  0  0
    5.7249   -5.8249    0.0000 O   0  0  0  0  0  0  0  0  0  0  0  0
    7.8537   -7.0663    0.0000 C   0  0  0  0  0  0  0  0  0  0  0  0
    9.2826   -7.0580    0.0000 C   0  0  0  0  0  0  0  0  0  0  0  0
    8.5660   -9.1201    0.0000 O   0  0  0  0  0  0  0  0  0  0  0  0
    5.7124   -9.9533    0.0000 Cl  0  0  0  0  0  0  0  0  0  0  0  0
    8.5619   -5.8249    0.0000 C   0  0  0  0  0  0  0  0  0  0  0  0
    9.2784   -6.2373    0.0000 C   0  0  0  0  0  0  0  0  0  0  0  0
    7.8453   -6.2456    0.0000 C   0  0  0  0  0  0  0  0  0  0  0  0
    9.2868   -9.5284    0.0000 C   0  0  0  0  0  0  0  0  0  0  0  0
    8.5577   -5.0000    0.0000 Cl  0  0  0  0  0  0  0  0  0  0  0  0
    6.4331   -7.0621    0.0000 C   0  0  0  0  0  0  0  0  0  0  0  0
    5.0042   -7.0663    0.0000 C   0  0  0  0  0  0  0  0  0  0  0  0
    9.9908   -8.2869    0.0000 C   0  0  0  0  0  0  0  0  0  0  0  0
   10.7157   -9.5200    0.0000 C   0  0  0  0  0  0  0  0  0  0  0  0
    5.0083   -6.2373    0.0000 C   0  0  0  0  0  0  0  0  0  0  0  0
    6.4372   -6.2414    0.0000 C   0  0  0  0  0  0  0  0  0  0  0  0
   10.7073   -8.6910    0.0000 C   0  0  0  0  0  0  0  0  0  0  0  0
  2  1  1  0  0  0  0
  3  4  2  0  0  0  0
  4  1  1  0  0  0  0
  5  3  1  0  0  0  0
  6  2  1  0  0  0  0
  7  1  2  0  0  0  0
  8  5  1  0  0  0  0
  9  5  1  0  0  0  0
 10  2  2  0  0  0  0
 11 13  2  0  0  0  0
 12 22  1  0  0  0  0
 13  7  1  0  0  0  0
 14 28  1  0  0  0  0
 15  9  1  0  0  0  0
 16  9  2  0  0  0  0
 17  5  1  0  0  0  0
 18  7  1  0  0  0  0
 19 21  1  0  0  0  0
 20 16  1  0  0  0  0
 21 15  2  0  0  0  0
 22  8  2  0  0  0  0
 23 19  1  0  0  0  0
 24  6  1  0  0  0  0
 25  6  1  0  0  0  0
 26  8  1  0  0  0  0
 27 30  1  0  0  0  0
 28 25  1  0  0  0  0
 29 24  1  0  0  0  0
 30 26  2  0  0  0  0
  3 11  1  0  0  0  0
 14 29  1  0  0  0  0
 19 20  2  0  0  0  0
 27 12  2  0  0  0  0
M  END
> <Molecule Name>
DNDI1454257

> <CDD Number>
CDD-1535578

> <IC50_uM>
0.12 (n=1)

$$$$

SketchEl molfile

 29 32  0  0  0  0  0  0  0  0999 V2000
    5.7158   -8.7205    0.0000 C   0  0  0  0  0  0  0  0  0  0  0  0
    5.7147   -9.5477    0.0000 C   0  0  0  0  0  0  0  0  0  0  0  0
    6.4295   -9.9606    0.0000 C   0  0  0  0  0  0  0  0  0  0  0  0
    7.1458   -9.5473    0.0000 C   0  0  0  0  0  0  0  0  0  0  0  0
    7.1430   -8.7168    0.0000 C   0  0  0  0  0  0  0  0  0  0  0  0
    6.4277   -8.3078    0.0000 C   0  0  0  0  0  0  0  0  0  0  0  0
    7.8558   -8.3017    0.0000 C   0  0  0  0  0  0  0  0  0  0  0  0
    8.5717   -8.7114    0.0000 C   0  0  0  0  0  0  0  0  0  0  0  0
    7.8527   -7.4767    0.0000 N   0  0  0  0  0  0  0  0  0  0  0  0
    8.5655   -7.0617    0.0000 C   0  0  0  0  0  0  0  0  0  0  0  0
    9.2766   -7.4742    0.0000 C   0  0  0  0  0  0  0  0  0  0  0  0
    9.9873   -7.0627    0.0000 C   0  0  0  0  0  0  0  0  0  0  0  0
    9.9885   -6.2374    0.0000 N   0  0  0  0  0  0  0  0  0  0  0  0
    9.2727   -5.8254    0.0000 C   0  0  0  0  0  0  0  0  0  0  0  0
    8.5557   -6.2387    0.0000 C   0  0  0  0  0  0  0  0  0  0  0  0
    8.5715   -9.5340    0.0000 C   0  0  0  0  0  0  0  0  0  0  0  0
    9.2866   -9.9437    0.0000 N   0  0  0  0  0  0  0  0  0  0  0  0
   10.0004   -9.5285    0.0000 C   0  0  0  0  0  0  0  0  0  0  0  0
    9.9947   -8.6993    0.0000 C   0  0  0  0  0  0  0  0  0  0  0  0
    9.2790   -8.2934    0.0000 C   0  0  0  0  0  0  0  0  0  0  0  0
   10.7028   -5.8249    0.0000 C   0  0  0  0  0  0  0  0  0  0  0  0
   11.4172   -6.2374    0.0000 C   0  0  0  0  0  0  0  0  0  0  0  0
   10.7028   -5.0000    0.0000 O   0  0  0  0  0  0  0  0  0  0  0  0
   11.8333   -6.9490    0.0000 C   0  0  0  0  0  0  0  0  0  0  0  0
   12.2458   -6.2347    0.0000 C   0  0  0  0  0  0  0  0  0  0  0  0
    5.0000   -9.9597    0.0000 C   0  0  0  0  0  0  0  0  0  0  0  0
    4.2859   -9.5466    0.0000 F   0  0  0  0  0  0  0  0  0  0  0  0
    4.9993  -10.7846    0.0000 F   0  0  0  0  0  0  0  0  0  0  0  0
    4.7871   -9.1627    0.0000 F   0  0  0  0  0  0  0  0  0  0  0  0
  2 26  1  0  0  0  0
 26 27  1  0  0  0  0
 26 28  1  0  0  0  0
 26 29  1  0  0  0  0
 12 13  1  0  0  0  0
 13 14  1  0  0  0  0
 14 15  1  0  0  0  0
  3  4  2  0  0  0  0
  8 16  2  0  0  0  0
  7  8  1  0  0  0  0
 16 17  1  0  0  0  0
 17 18  2  0  0  0  0
  7  9  1  0  0  0  0
 18 19  1  0  0  0  0
  4  5  1  0  0  0  0
 19 20  2  0  0  0  0
 20  8  1  0  0  0  0
  9 10  1  0  0  0  0
 13 21  1  0  0  0  0
 10 11  1  0  0  0  0
 21 22  1  0  0  0  0
  2  3  1  0  0  0  0
 21 23  2  0  0  0  0
 24 22  1  0  0  0  0
 25 24  1  0  0  0  0
 22 25  1  0  0  0  0
  5  6  2  0  0  0  0
  6  1  1  0  0  0  0
  1  2  2  0  0  0  0
  5  7  1  0  0  0  0
 10 15  1  0  0  0  0
 11 12  1  0  0  0  0
M  END
> <Molecule Name>
DNDI1454262

> <CDD Number>
CDD-1535579

> <IC50_uM>
0.15 (n=1)

$$$$

SketchEl molfile

 32 35  0  0  0  0  0  0  0  0999 V2000
    5.7160   -8.7214    0.0000 C   0  0  0  0  0  0  0  0  0  0  0  0
    5.7149   -9.5489    0.0000 C   0  0  0  0  0  0  0  0  0  0  0  0
    6.4298   -9.9619    0.0000 C   0  0  0  0  0  0  0  0  0  0  0  0
    7.1463   -9.5484    0.0000 C   0  0  0  0  0  0  0  0  0  0  0  0
    7.1435   -8.7178    0.0000 C   0  0  0  0  0  0  0  0  0  0  0  0
    6.4280   -8.3086    0.0000 C   0  0  0  0  0  0  0  0  0  0  0  0
    7.8565   -8.3025    0.0000 C   0  0  0  0  0  0  0  0  0  0  0  0
    8.5726   -8.7124    0.0000 C   0  0  0  0  0  0  0  0  0  0  0  0
    7.8534   -7.4774    0.0000 N   0  0  0  0  0  0  0  0  0  0  0  0
    8.5664   -7.0621    0.0000 C   0  0  0  0  0  0  0  0  0  0  0  0
    9.2776   -7.4749    0.0000 C   0  0  0  0  0  0  0  0  0  0  0  0
    9.9886   -7.0631    0.0000 C   0  0  0  0  0  0  0  0  0  0  0  0
    9.9898   -6.2377    0.0000 N   0  0  0  0  0  0  0  0  0  0  0  0
    9.2737   -5.8256    0.0000 C   0  0  0  0  0  0  0  0  0  0  0  0
    8.5566   -6.2390    0.0000 C   0  0  0  0  0  0  0  0  0  0  0  0
    8.5724   -9.5352    0.0000 C   0  0  0  0  0  0  0  0  0  0  0  0
    9.2876   -9.9450    0.0000 N   0  0  0  0  0  0  0  0  0  0  0  0
   10.0017   -9.5296    0.0000 C   0  0  0  0  0  0  0  0  0  0  0  0
    9.9960   -8.7003    0.0000 C   0  0  0  0  0  0  0  0  0  0  0  0
    9.2800   -8.2942    0.0000 C   0  0  0  0  0  0  0  0  0  0  0  0
   10.7043   -5.8251    0.0000 C   0  0  0  0  0  0  0  0  0  0  0  0
   11.4189   -6.2377    0.0000 C   0  0  0  0  0  0  0  0  0  0  0  0
   10.7043   -5.0000    0.0000 O   0  0  0  0  0  0  0  0  0  0  0  0
   11.4156   -7.0597    0.0000 C   0  0  0  0  0  0  0  0  0  0  0  0
   12.1293   -7.4723    0.0000 C   0  0  0  0  0  0  0  0  0  0  0  0
   12.8449   -7.0596    0.0000 C   0  0  0  0  0  0  0  0  0  0  0  0
   12.8422   -6.2303    0.0000 C   0  0  0  0  0  0  0  0  0  0  0  0
   12.1279   -5.8215    0.0000 C   0  0  0  0  0  0  0  0  0  0  0  0
    5.0000   -9.9609    0.0000 C   0  0  0  0  0  0  0  0  0  0  0  0
    4.2857   -9.5478    0.0000 F   0  0  0  0  0  0  0  0  0  0  0  0
    4.9993  -10.7860    0.0000 F   0  0  0  0  0  0  0  0  0  0  0  0
    4.7871   -9.1638    0.0000 F   0  0  0  0  0  0  0  0  0  0  0  0
  2 29  1  0  0  0  0
 29 30  1  0  0  0  0
 29 31  1  0  0  0  0
 29 32  1  0  0  0  0
  3  4  2  0  0  0  0
  8 16  2  0  0  0  0
  7  8  1  0  0  0  0
 16 17  1  0  0  0  0
 17 18  2  0  0  0  0
  7  9  1  0  0  0  0
 18 19  1  0  0  0  0
  4  5  1  0  0  0  0
 19 20  2  0  0  0  0
 20  8  1  0  0  0  0
  9 10  1  0  0  0  0
 13 21  1  0  0  0  0
 10 11  1  0  0  0  0
 21 22  1  0  0  0  0
  2  3  1  0  0  0  0
 21 23  2  0  0  0  0
  5  6  2  0  0  0  0
 22 24  2  0  0  0  0
  6  1  1  0  0  0  0
 24 25  1  0  0  0  0
  1  2  2  0  0  0  0
 25 26  2  0  0  0  0
  5  7  1  0  0  0  0
 26 27  1  0  0  0  0
 10 15  1  0  0  0  0
 27 28  2  0  0  0  0
 28 22  1  0  0  0  0
 11 12  1  0  0  0  0
 12 13  1  0  0  0  0
 13 14  1  0  0  0  0
 14 15  1  0  0  0  0
M  END
> <Molecule Name>
DNDI1454263

> <CDD Number>
CDD-1535580

> <IC50_uM>
0.083 (n=1)

$$$$

SketchEl molfile

 31 33  0  0  0  0  0  0  0  0999 V2000
    5.7159   -8.7209    0.0000 C   0  0  0  0  0  0  0  0  0  0  0  0
    5.7148   -9.5483    0.0000 C   0  0  0  0  0  0  0  0  0  0  0  0
    6.4296   -9.9612    0.0000 C   0  0  0  0  0  0  0  0  0  0  0  0
    7.1460   -9.5478    0.0000 C   0  0  0  0  0  0  0  0  0  0  0  0
    7.1432   -8.7173    0.0000 C   0  0  0  0  0  0  0  0  0  0  0  0
    6.4278   -8.3081    0.0000 C   0  0  0  0  0  0  0  0  0  0  0  0
    7.8562   -8.3020    0.0000 C   0  0  0  0  0  0  0  0  0  0  0  0
    8.5722   -8.7119    0.0000 C   0  0  0  0  0  0  0  0  0  0  0  0
    7.8531   -7.4770    0.0000 N   0  0  0  0  0  0  0  0  0  0  0  0
    8.5660   -7.0618    0.0000 C   0  0  0  0  0  0  0  0  0  0  0  0
    9.2771   -7.4745    0.0000 C   0  0  0  0  0  0  0  0  0  0  0  0
    9.9879   -7.0628    0.0000 C   0  0  0  0  0  0  0  0  0  0  0  0
    9.9891   -6.2375    0.0000 N   0  0  0  0  0  0  0  0  0  0  0  0
    9.2732   -5.8255    0.0000 C   0  0  0  0  0  0  0  0  0  0  0  0
    8.5562   -6.2388    0.0000 C   0  0  0  0  0  0  0  0  0  0  0  0
    8.5720   -9.5346    0.0000 C   0  0  0  0  0  0  0  0  0  0  0  0
    9.2871   -9.9443    0.0000 N   0  0  0  0  0  0  0  0  0  0  0  0
   10.0010   -9.5290    0.0000 C   0  0  0  0  0  0  0  0  0  0  0  0
    9.9953   -8.6998    0.0000 C   0  0  0  0  0  0  0  0  0  0  0  0
    9.2795   -8.2937    0.0000 C   0  0  0  0  0  0  0  0  0  0  0  0
   10.7035   -5.8250    0.0000 C   0  0  0  0  0  0  0  0  0  0  0  0
   11.4180   -6.2375    0.0000 N   0  0  0  0  0  0  0  0  0  0  0  0
   10.7035   -5.0000    0.0000 O   0  0  0  0  0  0  0  0  0  0  0  0
   11.4180   -7.0625    0.0000 C   0  0  0  0  0  0  0  0  0  0  0  0
   12.1326   -5.8250    0.0000 C   0  0  0  0  0  0  0  0  0  0  0  0
   12.1325   -7.4750    0.0000 C   0  0  0  0  0  0  0  0  0  0  0  0
   12.8470   -6.2375    0.0000 C   0  0  0  0  0  0  0  0  0  0  0  0
    5.0000   -9.9602    0.0000 C   0  0  0  0  0  0  0  0  0  0  0  0
    4.2858   -9.5472    0.0000 F   0  0  0  0  0  0  0  0  0  0  0  0
    4.9993  -10.7852    0.0000 F   0  0  0  0  0  0  0  0  0  0  0  0
    4.7871   -9.1632    0.0000 F   0  0  0  0  0  0  0  0  0  0  0  0
  2 28  1  0  0  0  0
 28 29  1  0  0  0  0
 28 30  1  0  0  0  0
 28 31  1  0  0  0  0
 14 15  1  0  0  0  0
  3  4  2  0  0  0  0
  8 16  2  0  0  0  0
  7  8  1  0  0  0  0
 16 17  1  0  0  0  0
 17 18  2  0  0  0  0
  7  9  1  0  0  0  0
 18 19  1  0  0  0  0
  4  5  1  0  0  0  0
 19 20  2  0  0  0  0
 20  8  1  0  0  0  0
  9 10  1  0  0  0  0
 13 21  1  0  0  0  0
 10 11  1  0  0  0  0
 21 22  1  0  0  0  0
  2  3  1  0  0  0  0
 21 23  2  0  0  0  0
  5  6  2  0  0  0  0
 22 24  1  0  0  0  0
  6  1  1  0  0  0  0
 22 25  1  0  0  0  0
  1  2  2  0  0  0  0
 24 26  1  0  0  0  0
  5  7  1  0  0  0  0
 25 27  1  0  0  0  0
 10 15  1  0  0  0  0
 11 12  1  0  0  0  0
 12 13  1  0  0  0  0
 13 14  1  0  0  0  0
M  END
> <Molecule Name>
DNDI1454264

> <CDD Number>
CDD-1535581

> <IC50_uM>
0.036 (n=1)

$$$$

SketchEl molfile

 33 36  0  0  0  0  0  0  0  0999 V2000
    5.7161   -9.1311    0.0000 C   0  0  0  0  0  0  0  0  0  0  0  0
    5.7149   -9.9587    0.0000 C   0  0  0  0  0  0  0  0  0  0  0  0
    6.4299  -10.3716    0.0000 C   0  0  0  0  0  0  0  0  0  0  0  0
    7.1465   -9.9582    0.0000 C   0  0  0  0  0  0  0  0  0  0  0  0
    7.1436   -9.1275    0.0000 C   0  0  0  0  0  0  0  0  0  0  0  0
    6.4281   -8.7183    0.0000 C   0  0  0  0  0  0  0  0  0  0  0  0
    7.8567   -8.7122    0.0000 C   0  0  0  0  0  0  0  0  0  0  0  0
    8.5728   -9.1221    0.0000 C   0  0  0  0  0  0  0  0  0  0  0  0
    7.8536   -7.8870    0.0000 N   0  0  0  0  0  0  0  0  0  0  0  0
    8.5666   -7.4718    0.0000 C   0  0  0  0  0  0  0  0  0  0  0  0
    9.2779   -7.8845    0.0000 C   0  0  0  0  0  0  0  0  0  0  0  0
    9.9888   -7.4728    0.0000 C   0  0  0  0  0  0  0  0  0  0  0  0
    9.9900   -6.6473    0.0000 N   0  0  0  0  0  0  0  0  0  0  0  0
    9.2740   -6.2352    0.0000 C   0  0  0  0  0  0  0  0  0  0  0  0
    8.5568   -6.6486    0.0000 C   0  0  0  0  0  0  0  0  0  0  0  0
    8.5726   -9.9450    0.0000 C   0  0  0  0  0  0  0  0  0  0  0  0
    9.2880  -10.3547    0.0000 N   0  0  0  0  0  0  0  0  0  0  0  0
   10.0020   -9.9393    0.0000 C   0  0  0  0  0  0  0  0  0  0  0  0
    9.9962   -9.1100    0.0000 C   0  0  0  0  0  0  0  0  0  0  0  0
    9.2803   -8.7039    0.0000 C   0  0  0  0  0  0  0  0  0  0  0  0
   10.7046   -6.2347    0.0000 C   0  0  0  0  0  0  0  0  0  0  0  0
   11.4192   -6.6473    0.0000 N   0  0  0  0  0  0  0  0  0  0  0  0
   10.7046   -5.4095    0.0000 O   0  0  0  0  0  0  0  0  0  0  0  0
   12.1338   -6.2347    0.0000 C   0  0  0  0  0  0  0  0  0  0  0  0
   12.8432   -6.6504    0.0000 C   0  0  0  0  0  0  0  0  0  0  0  0
   13.5573   -6.2384    0.0000 C   0  0  0  0  0  0  0  0  0  0  0  0
   13.5577   -5.4124    0.0000 C   0  0  0  0  0  0  0  0  0  0  0  0
   12.8381   -5.0000    0.0000 C   0  0  0  0  0  0  0  0  0  0  0  0
   12.1269   -5.4142    0.0000 C   0  0  0  0  0  0  0  0  0  0  0  0
    5.0000  -10.3706    0.0000 C   0  0  0  0  0  0  0  0  0  0  0  0
    4.2858   -9.9576    0.0000 F   0  0  0  0  0  0  0  0  0  0  0  0
    4.9994  -11.1958    0.0000 F   0  0  0  0  0  0  0  0  0  0  0  0
    4.7871   -9.5735    0.0000 F   0  0  0  0  0  0  0  0  0  0  0  0
  2 30  1  0  0  0  0
 30 31  1  0  0  0  0
 30 32  1  0  0  0  0
 30 33  1  0  0  0  0
  8 16  2  0  0  0  0
  7  8  1  0  0  0  0
 16 17  1  0  0  0  0
 17 18  2  0  0  0  0
  7  9  1  0  0  0  0
 18 19  1  0  0  0  0
  4  5  1  0  0  0  0
 19 20  2  0  0  0  0
 20  8  1  0  0  0  0
  9 10  1  0  0  0  0
 13 21  1  0  0  0  0
 10 11  1  0  0  0  0
 21 22  1  0  0  0  0
  2  3  1  0  0  0  0
 21 23  2  0  0  0  0
  5  6  2  0  0  0  0
 22 24  1  0  0  0  0
  6  1  1  0  0  0  0
 24 25  2  0  0  0  0
  1  2  2  0  0  0  0
 25 26  1  0  0  0  0
  5  7  1  0  0  0  0
 26 27  2  0  0  0  0
 10 15  1  0  0  0  0
 27 28  1  0  0  0  0
 11 12  1  0  0  0  0
 28 29  2  0  0  0  0
 29 24  1  0  0  0  0
 12 13  1  0  0  0  0
 13 14  1  0  0  0  0
 14 15  1  0  0  0  0
  3  4  2  0  0  0  0
M  END
> <Molecule Name>
DNDI1454265

> <CDD Number>
CDD-1535582

> <IC50_uM>
0.076 (n=1)

$$$$

SketchEl molfile

 28 30  0  0  0  0  0  0  0  0999 V2000
    5.7161   -8.7256    0.0000 C   0  0  0  0  0  0  0  0  0  0  0  0
    5.7149   -9.5531    0.0000 C   0  0  0  0  0  0  0  0  0  0  0  0
    6.4299   -9.9660    0.0000 C   0  0  0  0  0  0  0  0  0  0  0  0
    7.1464   -9.5526    0.0000 C   0  0  0  0  0  0  0  0  0  0  0  0
    7.1435   -8.7220    0.0000 C   0  0  0  0  0  0  0  0  0  0  0  0
    6.4281   -8.3127    0.0000 C   0  0  0  0  0  0  0  0  0  0  0  0
    7.8566   -8.3067    0.0000 C   0  0  0  0  0  0  0  0  0  0  0  0
    8.5727   -8.7166    0.0000 C   0  0  0  0  0  0  0  0  0  0  0  0
    7.8534   -7.4816    0.0000 N   0  0  0  0  0  0  0  0  0  0  0  0
    8.5665   -7.0663    0.0000 C   0  0  0  0  0  0  0  0  0  0  0  0
    9.2778   -7.4791    0.0000 C   0  0  0  0  0  0  0  0  0  0  0  0
    9.9887   -7.0673    0.0000 C   0  0  0  0  0  0  0  0  0  0  0  0
    9.9898   -6.2418    0.0000 N   0  0  0  0  0  0  0  0  0  0  0  0
    9.2738   -5.8297    0.0000 C   0  0  0  0  0  0  0  0  0  0  0  0
    8.5566   -6.2432    0.0000 C   0  0  0  0  0  0  0  0  0  0  0  0
    8.5724   -9.5393    0.0000 C   0  0  0  0  0  0  0  0  0  0  0  0
    9.2878   -9.9491    0.0000 N   0  0  0  0  0  0  0  0  0  0  0  0
   10.0018   -9.5338    0.0000 C   0  0  0  0  0  0  0  0  0  0  0  0
    9.9960   -8.7045    0.0000 C   0  0  0  0  0  0  0  0  0  0  0  0
    9.2802   -8.2984    0.0000 C   0  0  0  0  0  0  0  0  0  0  0  0
   10.7044   -5.8292    0.0000 S   0  0  0  0  0  0  0  0  0  0  0  0
   11.4976   -5.6085    0.0000 C   0  0  0  0  0  0  0  0  0  0  0  0
   10.6975   -5.0000    0.0000 O   0  0  0  0  0  0  0  0  0  0  0  0
   10.9142   -6.6212    0.0000 O   0  0  0  0  0  0  0  0  0  0  0  0
    5.0000   -9.9651    0.0000 C   0  0  0  0  0  0  0  0  0  0  0  0
    4.2858   -9.5519    0.0000 F   0  0  0  0  0  0  0  0  0  0  0  0
    4.9994  -10.7902    0.0000 F   0  0  0  0  0  0  0  0  0  0  0  0
    4.7872   -9.1679    0.0000 F   0  0  0  0  0  0  0  0  0  0  0  0
  2 25  1  0  0  0  0
 25 26  1  0  0  0  0
 25 27  1  0  0  0  0
 25 28  1  0  0  0  0
 11 12  1  0  0  0  0
 12 13  1  0  0  0  0
 13 14  1  0  0  0  0
 14 15  1  0  0  0  0
  3  4  2  0  0  0  0
  8 16  2  0  0  0  0
  7  8  1  0  0  0  0
 16 17  1  0  0  0  0
 17 18  2  0  0  0  0
  7  9  1  0  0  0  0
 18 19  1  0  0  0  0
  4  5  1  0  0  0  0
 19 20  2  0  0  0  0
 20  8  1  0  0  0  0
  9 10  1  0  0  0  0
 13 21  1  0  0  0  0
 10 11  1  0  0  0  0
 21 22  1  0  0  0  0
  2  3  1  0  0  0  0
 21 23  2  0  0  0  0
  5  6  2  0  0  0  0
 21 24  2  0  0  0  0
  6  1  1  0  0  0  0
  1  2  2  0  0  0  0
  5  7  1  0  0  0  0
 10 15  1  0  0  0  0
M  END
> <Molecule Name>
DNDI1454266

> <CDD Number>
CDD-1535583

> <IC50_uM>
0.19 (n=1)

$$$$

SketchEl molfile

 27 29  0  0  0  0  0  0  0  0999 V2000
    5.7159   -9.9555    0.0000 C   0  0  0  0  0  0  0  0  0  0  0  0
    5.7148  -10.7827    0.0000 C   0  0  0  0  0  0  0  0  0  0  0  0
    6.4295  -11.1956    0.0000 C   0  0  0  0  0  0  0  0  0  0  0  0
    7.1459  -10.7823    0.0000 C   0  0  0  0  0  0  0  0  0  0  0  0
    7.1431   -9.9518    0.0000 C   0  0  0  0  0  0  0  0  0  0  0  0
    6.4277   -9.5427    0.0000 C   0  0  0  0  0  0  0  0  0  0  0  0
    7.8559   -9.5366    0.0000 C   0  0  0  0  0  0  0  0  0  0  0  0
    8.5719   -9.9464    0.0000 C   0  0  0  0  0  0  0  0  0  0  0  0
    8.5717  -10.7690    0.0000 C   0  0  0  0  0  0  0  0  0  0  0  0
    9.2867  -11.1787    0.0000 N   0  0  0  0  0  0  0  0  0  0  0  0
   10.0006  -10.7635    0.0000 C   0  0  0  0  0  0  0  0  0  0  0  0
    9.9949   -9.9343    0.0000 C   0  0  0  0  0  0  0  0  0  0  0  0
    9.2791   -9.5283    0.0000 C   0  0  0  0  0  0  0  0  0  0  0  0
    7.8528   -8.7116    0.0000 N   0  0  0  0  0  0  0  0  0  0  0  0
    8.5657   -8.2966    0.0000 C   0  0  0  0  0  0  0  0  0  0  0  0
    8.5626   -7.4716    0.0000 C   0  0  0  0  0  0  0  0  0  0  0  0
    9.2816   -8.7063    0.0000 O   0  0  0  0  0  0  0  0  0  0  0  0
    9.2745   -7.0596    0.0000 C   0  0  0  0  0  0  0  0  0  0  0  0
    9.2718   -6.2355    0.0000 C   0  0  0  0  0  0  0  0  0  0  0  0
    8.5553   -5.8249    0.0000 C   0  0  0  0  0  0  0  0  0  0  0  0
    7.8400   -6.2445    0.0000 C   0  0  0  0  0  0  0  0  0  0  0  0
    7.8463   -7.0672    0.0000 C   0  0  0  0  0  0  0  0  0  0  0  0
    5.0000  -11.1947    0.0000 Cl  0  0  0  0  0  0  0  0  0  0  0  0
    8.5511   -5.0000    0.0000 C   0  0  0  0  0  0  0  0  0  0  0  0
    9.2634   -4.5838    0.0000 F   0  0  0  0  0  0  0  0  0  0  0  0
    7.8345   -4.5911    0.0000 F   0  0  0  0  0  0  0  0  0  0  0  0
    9.3490   -5.2094    0.0000 F   0  0  0  0  0  0  0  0  0  0  0  0
 20 24  1  0  0  0  0
 24 25  1  0  0  0  0
 24 26  1  0  0  0  0
 24 27  1  0  0  0  0
 13  8  1  0  0  0  0
  1  2  2  0  0  0  0
  7 14  1  0  0  0  0
  5  7  1  0  0  0  0
 14 15  1  0  0  0  0
  3  4  2  0  0  0  0
 15 16  1  0  0  0  0
  7  8  1  0  0  0  0
 15 17  2  0  0  0  0
 16 18  2  0  0  0  0
  8  9  2  0  0  0  0
 18 19  1  0  0  0  0
  4  5  1  0  0  0  0
 19 20  2  0  0  0  0
  9 10  1  0  0  0  0
 20 21  1  0  0  0  0
  2  3  1  0  0  0  0
 21 22  2  0  0  0  0
 22 16  1  0  0  0  0
 10 11  2  0  0  0  0
  2 23  1  0  0  0  0
  5  6  2  0  0  0  0
 11 12  1  0  0  0  0
  6  1  1  0  0  0  0
 12 13  2  0  0  0  0
M  END
> <Molecule Name>
DNDI1459241

> <CDD Number>
CDD-1535584

> <IC50_uM>
0.25 (n=1)

$$$$

SketchEl molfile

 24 26  0  0  0  0  0  0  0  0999 V2000
    7.8539   -8.7121    0.0000 N   0  0  0  0  0  0  0  0  0  0  0  0
    8.5663   -8.2955    0.0000 C   0  0  0  0  0  0  0  0  0  0  0  0
    7.8580   -9.5370    0.0000 C   0  0  0  0  0  0  0  0  0  0  0  0
    8.5621   -7.4706    0.0000 C   0  0  0  0  0  0  0  0  0  0  0  0
    8.5746   -9.9453    0.0000 C   0  0  0  0  0  0  0  0  0  0  0  0
    7.1456   -9.9537    0.0000 C   0  0  0  0  0  0  0  0  0  0  0  0
    9.2829   -8.7080    0.0000 O   0  0  0  0  0  0  0  0  0  0  0  0
    9.2871  -11.1785    0.0000 N   0  0  0  0  0  0  0  0  0  0  0  0
    9.2746   -7.0581    0.0000 C   0  0  0  0  0  0  0  0  0  0  0  0
    7.8455   -7.0665    0.0000 C   0  0  0  0  0  0  0  0  0  0  0  0
    6.4290   -9.5412    0.0000 C   0  0  0  0  0  0  0  0  0  0  0  0
    7.1456  -10.7827    0.0000 C   0  0  0  0  0  0  0  0  0  0  0  0
    8.5580   -5.8249    0.0000 C   0  0  0  0  0  0  0  0  0  0  0  0
    5.7166  -10.7827    0.0000 C   0  0  0  0  0  0  0  0  0  0  0  0
    9.2746   -6.2374    0.0000 C   0  0  0  0  0  0  0  0  0  0  0  0
    6.4290  -11.1952    0.0000 C   0  0  0  0  0  0  0  0  0  0  0  0
    7.8414   -6.2457    0.0000 C   0  0  0  0  0  0  0  0  0  0  0  0
    5.7166   -9.9578    0.0000 C   0  0  0  0  0  0  0  0  0  0  0  0
    8.5746  -10.7702    0.0000 C   0  0  0  0  0  0  0  0  0  0  0  0
    5.0000  -11.1952    0.0000 Cl  0  0  0  0  0  0  0  0  0  0  0  0
    8.5538   -5.0000    0.0000 Cl  0  0  0  0  0  0  0  0  0  0  0  0
    9.2787   -9.5287    0.0000 C   0  0  0  0  0  0  0  0  0  0  0  0
   10.0036  -10.7619    0.0000 C   0  0  0  0  0  0  0  0  0  0  0  0
    9.9953   -9.9328    0.0000 C   0  0  0  0  0  0  0  0  0  0  0  0
  2  1  1  0  0  0  0
  3  1  1  0  0  0  0
  4  2  1  0  0  0  0
  5  3  1  0  0  0  0
  6  3  1  0  0  0  0
  7  2  2  0  0  0  0
  8 19  1  0  0  0  0
  9  4  2  0  0  0  0
 10  4  1  0  0  0  0
 11  6  2  0  0  0  0
 12  6  1  0  0  0  0
 13 17  1  0  0  0  0
 14 18  2  0  0  0  0
 15  9  1  0  0  0  0
 16 12  2  0  0  0  0
 17 10  2  0  0  0  0
 18 11  1  0  0  0  0
 19  5  2  0  0  0  0
 20 14  1  0  0  0  0
 21 13  1  0  0  0  0
 22  5  1  0  0  0  0
 23  8  2  0  0  0  0
 24 22  2  0  0  0  0
 13 15  2  0  0  0  0
 24 23  1  0  0  0  0
 16 14  1  0  0  0  0
M  END
> <Molecule Name>
DNDI1459242

> <CDD Number>
CDD-1535585

> <IC50_uM>
0.45 (n=1)

$$$$

SketchEl molfile

 29 31  0  0  0  0  0  0  0  0999 V2000
    7.1462   -9.9550    0.0000 C   0  0  0  0  0  0  0  0  0  0  0  0
    7.8546   -8.7132    0.0000 N   0  0  0  0  0  0  0  0  0  0  0  0
    8.5673   -5.8293    0.0000 C   0  0  0  0  0  0  0  0  0  0  0  0
    7.8588   -9.5383    0.0000 C   0  0  0  0  0  0  0  0  0  0  0  0
    6.4294   -9.5425    0.0000 C   0  0  0  0  0  0  0  0  0  0  0  0
    7.1462  -10.7843    0.0000 C   0  0  0  0  0  0  0  0  0  0  0  0
    5.7168   -9.9592    0.0000 C   0  0  0  0  0  0  0  0  0  0  0  0
    7.8546   -6.2419    0.0000 N   0  0  0  0  0  0  0  0  0  0  0  0
    8.5756   -9.9467    0.0000 C   0  0  0  0  0  0  0  0  0  0  0  0
    9.2840   -6.2419    0.0000 O   0  0  0  0  0  0  0  0  0  0  0  0
    7.1379   -8.3089    0.0000 C   0  0  0  0  0  0  0  0  0  0  0  0
    8.5673   -8.3006    0.0000 C   0  0  0  0  0  0  0  0  0  0  0  0
    8.5673   -5.0042    0.0000 O   0  0  0  0  0  0  0  0  0  0  0  0
    9.2882  -11.1802    0.0000 N   0  0  0  0  0  0  0  0  0  0  0  0
    9.9925   -5.8252    0.0000 C   0  0  0  0  0  0  0  0  0  0  0  0
    8.5673   -7.4796    0.0000 C   0  0  0  0  0  0  0  0  0  0  0  0
    7.1379   -7.4796    0.0000 C   0  0  0  0  0  0  0  0  0  0  0  0
    5.7168  -10.7843    0.0000 C   0  0  0  0  0  0  0  0  0  0  0  0
    7.8546   -7.0670    0.0000 C   0  0  0  0  0  0  0  0  0  0  0  0
    6.4252   -8.7173    0.0000 F   0  0  0  0  0  0  0  0  0  0  0  0
    6.4294  -11.1969    0.0000 C   0  0  0  0  0  0  0  0  0  0  0  0
    5.0000  -11.1969    0.0000 Cl  0  0  0  0  0  0  0  0  0  0  0  0
    8.5756  -10.7718    0.0000 C   0  0  0  0  0  0  0  0  0  0  0  0
    9.2799   -9.5300    0.0000 C   0  0  0  0  0  0  0  0  0  0  0  0
   10.0050  -10.7635    0.0000 C   0  0  0  0  0  0  0  0  0  0  0  0
   10.7134   -6.2294    0.0000 C   0  0  0  0  0  0  0  0  0  0  0  0
    9.9883   -5.0000    0.0000 C   0  0  0  0  0  0  0  0  0  0  0  0
   10.2134   -6.6170    0.0000 C   0  0  0  0  0  0  0  0  0  0  0  0
    9.9967   -9.9342    0.0000 C   0  0  0  0  0  0  0  0  0  0  0  0
  2  4  1  0  0  0  0
  3  8  1  0  0  0  0
  4  1  1  0  0  0  0
  5  1  2  0  0  0  0
  6  1  1  0  0  0  0
  7  5  1  0  0  0  0
  8 19  1  0  0  0  0
  9  4  1  0  0  0  0
 10  3  1  0  0  0  0
 11  2  1  0  0  0  0
 12  2  1  0  0  0  0
 13  3  2  0  0  0  0
 14 23  1  0  0  0  0
 15 10  1  0  0  0  0
 16 12  1  0  0  0  0
 17 11  1  0  0  0  0
 18  7  2  0  0  0  0
 19 17  1  0  0  0  0
 20  5  1  0  0  0  0
 21  6  2  0  0  0  0
 22 18  1  0  0  0  0
 23  9  2  0  0  0  0
 24  9  1  0  0  0  0
 25 29  1  0  0  0  0
 26 15  1  0  0  0  0
 27 15  1  0  0  0  0
 28 15  1  0  0  0  0
 29 24  2  0  0  0  0
 21 18  1  0  0  0  0
 25 14  2  0  0  0  0
 19 16  1  0  0  0  0
M  END
> <Molecule Name>
DNDI1459243

> <CDD Number>
CDD-1535586

> <IC50_uM>
0.01 (n=1)

$$$$

SketchEl molfile

 29 32  0  0  0  0  0  0  0  0999 V2000
    7.8546   -8.7089    0.0000 N   0  0  0  0  0  0  0  0  0  0  0  0
    8.5672   -5.8251    0.0000 C   0  0  0  0  0  0  0  0  0  0  0  0
    7.8546   -6.2377    0.0000 N   0  0  0  0  0  0  0  0  0  0  0  0
    7.8588   -9.5340    0.0000 C   0  0  0  0  0  0  0  0  0  0  0  0
    8.5756   -9.9424    0.0000 C   0  0  0  0  0  0  0  0  0  0  0  0
    7.1462   -9.9507    0.0000 C   0  0  0  0  0  0  0  0  0  0  0  0
    8.5672   -8.2963    0.0000 C   0  0  0  0  0  0  0  0  0  0  0  0
    7.1378   -8.3047    0.0000 C   0  0  0  0  0  0  0  0  0  0  0  0
    8.5672   -5.0000    0.0000 O   0  0  0  0  0  0  0  0  0  0  0  0
    9.2840   -6.2377    0.0000 C   0  0  0  0  0  0  0  0  0  0  0  0
    9.2882  -11.1759    0.0000 N   0  0  0  0  0  0  0  0  0  0  0  0
    7.8546   -7.0628    0.0000 C   0  0  0  0  0  0  0  0  0  0  0  0
    7.1378   -7.4754    0.0000 C   0  0  0  0  0  0  0  0  0  0  0  0
    8.5672   -7.4754    0.0000 C   0  0  0  0  0  0  0  0  0  0  0  0
    6.4294   -9.5382    0.0000 C   0  0  0  0  0  0  0  0  0  0  0  0
    7.1462  -10.7800    0.0000 C   0  0  0  0  0  0  0  0  0  0  0  0
    5.7168  -10.7800    0.0000 C   0  0  0  0  0  0  0  0  0  0  0  0
    5.7168   -9.9549    0.0000 C   0  0  0  0  0  0  0  0  0  0  0  0
    6.4294  -11.1926    0.0000 C   0  0  0  0  0  0  0  0  0  0  0  0
    5.0000  -11.1926    0.0000 Cl  0  0  0  0  0  0  0  0  0  0  0  0
    8.5756  -10.7675    0.0000 C   0  0  0  0  0  0  0  0  0  0  0  0
    9.2798   -9.5257    0.0000 C   0  0  0  0  0  0  0  0  0  0  0  0
   10.0049  -10.7592    0.0000 C   0  0  0  0  0  0  0  0  0  0  0  0
    9.2798   -7.0628    0.0000 C   0  0  0  0  0  0  0  0  0  0  0  0
    9.9924   -5.8251    0.0000 C   0  0  0  0  0  0  0  0  0  0  0  0
    9.9966   -9.9299    0.0000 C   0  0  0  0  0  0  0  0  0  0  0  0
   10.7050   -6.2335    0.0000 C   0  0  0  0  0  0  0  0  0  0  0  0
    9.9924   -7.4754    0.0000 C   0  0  0  0  0  0  0  0  0  0  0  0
   10.7092   -7.0628    0.0000 C   0  0  0  0  0  0  0  0  0  0  0  0
  2  3  1  0  0  0  0
  3 12  1  0  0  0  0
  4  1  1  0  0  0  0
  5  4  1  0  0  0  0
  6  4  1  0  0  0  0
  7  1  1  0  0  0  0
  8  1  1  0  0  0  0
  9  2  2  0  0  0  0
 10  2  1  0  0  0  0
 11 21  1  0  0  0  0
 12 13  1  0  0  0  0
 13  8  1  0  0  0  0
 14  7  1  0  0  0  0
 15  6  2  0  0  0  0
 16  6  1  0  0  0  0
 17 18  2  0  0  0  0
 18 15  1  0  0  0  0
 19 16  2  0  0  0  0
 20 17  1  0  0  0  0
 21  5  2  0  0  0  0
 22  5  1  0  0  0  0
 23 26  1  0  0  0  0
 24 10  2  0  0  0  0
 25 10  1  0  0  0  0
 26 22  2  0  0  0  0
 27 25  2  0  0  0  0
 28 24  1  0  0  0  0
 29 27  1  0  0  0  0
 12 14  1  0  0  0  0
 19 17  1  0  0  0  0
 23 11  2  0  0  0  0
 29 28  2  0  0  0  0
M  END
> <Molecule Name>
DNDI1459244

> <CDD Number>
CDD-1535587

> <IC50_uM>
0.01 (n=1)

$$$$

SketchEl molfile

 29 31  0  0  0  0  0  0  0  0999 V2000
    7.1463   -9.9552    0.0000 C   0  0  0  0  0  0  0  0  0  0  0  0
    7.8589   -9.5384    0.0000 C   0  0  0  0  0  0  0  0  0  0  0  0
    7.8548   -8.7132    0.0000 N   0  0  0  0  0  0  0  0  0  0  0  0
    8.5674   -5.8293    0.0000 C   0  0  0  0  0  0  0  0  0  0  0  0
    6.4295   -9.5426    0.0000 C   0  0  0  0  0  0  0  0  0  0  0  0
    8.5757   -9.9468    0.0000 C   0  0  0  0  0  0  0  0  0  0  0  0
    7.1463  -10.7845    0.0000 C   0  0  0  0  0  0  0  0  0  0  0  0
    5.7168   -9.9593    0.0000 C   0  0  0  0  0  0  0  0  0  0  0  0
    7.8548   -6.2419    0.0000 N   0  0  0  0  0  0  0  0  0  0  0  0
    9.2842   -6.2419    0.0000 O   0  0  0  0  0  0  0  0  0  0  0  0
    7.1379   -8.3090    0.0000 C   0  0  0  0  0  0  0  0  0  0  0  0
    8.5674   -8.3007    0.0000 C   0  0  0  0  0  0  0  0  0  0  0  0
    9.2884  -11.1804    0.0000 N   0  0  0  0  0  0  0  0  0  0  0  0
    9.9969   -9.9343    0.0000 N   0  0  0  0  0  0  0  0  0  0  0  0
    8.5674   -5.0041    0.0000 O   0  0  0  0  0  0  0  0  0  0  0  0
   10.0052  -10.7637    0.0000 C   0  0  0  0  0  0  0  0  0  0  0  0
    9.9969   -5.8251    0.0000 C   0  0  0  0  0  0  0  0  0  0  0  0
    8.5674   -7.4797    0.0000 C   0  0  0  0  0  0  0  0  0  0  0  0
    7.1379   -7.4797    0.0000 C   0  0  0  0  0  0  0  0  0  0  0  0
    5.7168  -10.7845    0.0000 C   0  0  0  0  0  0  0  0  0  0  0  0
    7.8548   -7.0671    0.0000 C   0  0  0  0  0  0  0  0  0  0  0  0
    6.4253   -8.7174    0.0000 F   0  0  0  0  0  0  0  0  0  0  0  0
    6.4295  -11.1971    0.0000 C   0  0  0  0  0  0  0  0  0  0  0  0
    8.5757  -10.7720    0.0000 C   0  0  0  0  0  0  0  0  0  0  0  0
    9.2801   -9.5301    0.0000 C   0  0  0  0  0  0  0  0  0  0  0  0
    5.0000  -11.1971    0.0000 Cl  0  0  0  0  0  0  0  0  0  0  0  0
   10.7137   -6.2294    0.0000 C   0  0  0  0  0  0  0  0  0  0  0  0
    9.9885   -5.0000    0.0000 C   0  0  0  0  0  0  0  0  0  0  0  0
   10.2136   -6.6170    0.0000 C   0  0  0  0  0  0  0  0  0  0  0  0
  2  1  1  0  0  0  0
  3  2  1  0  0  0  0
  4  9  1  0  0  0  0
  5  1  2  0  0  0  0
  6  2  1  0  0  0  0
  7  1  1  0  0  0  0
  8  5  1  0  0  0  0
  9 21  1  0  0  0  0
 10  4  1  0  0  0  0
 11  3  1  0  0  0  0
 12  3  1  0  0  0  0
 13 24  1  0  0  0  0
 14 25  2  0  0  0  0
 15  4  2  0  0  0  0
 16 14  1  0  0  0  0
 17 10  1  0  0  0  0
 18 12  1  0  0  0  0
 19 11  1  0  0  0  0
 20  8  2  0  0  0  0
 21 19  1  0  0  0  0
 22  5  1  0  0  0  0
 23  7  2  0  0  0  0
 24  6  2  0  0  0  0
 25  6  1  0  0  0  0
 26 20  1  0  0  0  0
 27 17  1  0  0  0  0
 28 17  1  0  0  0  0
 29 17  1  0  0  0  0
 23 20  1  0  0  0  0
 16 13  2  0  0  0  0
 21 18  1  0  0  0  0
M  END
> <Molecule Name>
DNDI1459245

> <CDD Number>
CDD-1535588

> <IC50_uM>
0.059 (n=1)

$$$$

SketchEl molfile

 26 29  0  0  0  0  0  0  0  0999 V2000
    8.5671   -5.8251    0.0000 C   0  0  0  0  0  0  0  0  0  0  0  0
    7.8545   -8.7088    0.0000 N   0  0  0  0  0  0  0  0  0  0  0  0
    9.2838   -6.2377    0.0000 C   0  0  0  0  0  0  0  0  0  0  0  0
    9.6964   -6.9502    0.0000 C   0  0  0  0  0  0  0  0  0  0  0  0
   10.1089   -6.2377    0.0000 C   0  0  0  0  0  0  0  0  0  0  0  0
    7.8545   -6.2377    0.0000 N   0  0  0  0  0  0  0  0  0  0  0  0
    7.8587   -9.5339    0.0000 C   0  0  0  0  0  0  0  0  0  0  0  0
    8.5754   -9.9423    0.0000 C   0  0  0  0  0  0  0  0  0  0  0  0
    7.1461   -9.9506    0.0000 C   0  0  0  0  0  0  0  0  0  0  0  0
    7.1377   -8.3046    0.0000 C   0  0  0  0  0  0  0  0  0  0  0  0
    8.5671   -8.2962    0.0000 C   0  0  0  0  0  0  0  0  0  0  0  0
    8.5671   -5.0000    0.0000 O   0  0  0  0  0  0  0  0  0  0  0  0
    9.2880  -11.1757    0.0000 N   0  0  0  0  0  0  0  0  0  0  0  0
    7.8545   -7.0628    0.0000 C   0  0  0  0  0  0  0  0  0  0  0  0
    7.1377   -7.4753    0.0000 C   0  0  0  0  0  0  0  0  0  0  0  0
    8.5671   -7.4753    0.0000 C   0  0  0  0  0  0  0  0  0  0  0  0
    6.4293   -9.5380    0.0000 C   0  0  0  0  0  0  0  0  0  0  0  0
    7.1461  -10.7799    0.0000 C   0  0  0  0  0  0  0  0  0  0  0  0
    5.7167  -10.7799    0.0000 C   0  0  0  0  0  0  0  0  0  0  0  0
    5.7167   -9.9548    0.0000 C   0  0  0  0  0  0  0  0  0  0  0  0
    6.4293  -11.1924    0.0000 C   0  0  0  0  0  0  0  0  0  0  0  0
    5.0000  -11.1924    0.0000 Cl  0  0  0  0  0  0  0  0  0  0  0  0
    8.5754  -10.7674    0.0000 C   0  0  0  0  0  0  0  0  0  0  0  0
    9.2797   -9.5255    0.0000 C   0  0  0  0  0  0  0  0  0  0  0  0
   10.0047  -10.7590    0.0000 C   0  0  0  0  0  0  0  0  0  0  0  0
    9.9964   -9.9298    0.0000 C   0  0  0  0  0  0  0  0  0  0  0  0
  2 10  1  0  0  0  0
  3  1  1  0  0  0  0
  4  3  1  0  0  0  0
  5  3  1  0  0  0  0
  6  1  1  0  0  0  0
  7  2  1  0  0  0  0
  8  7  1  0  0  0  0
  9  7  1  0  0  0  0
 10 15  1  0  0  0  0
 11 16  1  0  0  0  0
 12  1  2  0  0  0  0
 13 23  1  0  0  0  0
 14  6  1  0  0  0  0
 15 14  1  0  0  0  0
 16 14  1  0  0  0  0
 17  9  2  0  0  0  0
 18  9  1  0  0  0  0
 19 20  2  0  0  0  0
 20 17  1  0  0  0  0
 21 18  2  0  0  0  0
 22 19  1  0  0  0  0
 23  8  2  0  0  0  0
 24  8  1  0  0  0  0
 25 13  2  0  0  0  0
 26 24  2  0  0  0  0
  4  5  1  0  0  0  0
 11  2  1  0  0  0  0
 26 25  1  0  0  0  0
 21 19  1  0  0  0  0
M  END
> <Molecule Name>
DNDI1459246

> <CDD Number>
CDD-1535589

> <IC50_uM>
0.078 (n=1)

$$$$

SketchEl molfile

 29 31  0  0  0  0  0  0  0  0999 V2000
    9.2846   -5.8295    0.0000 C   0  0  0  0  0  0  0  0  0  0  0  0
    8.5719   -8.7136    0.0000 N   0  0  0  0  0  0  0  0  0  0  0  0
    5.0000  -11.6020    0.0000 N   0  0  0  0  0  0  0  0  0  0  0  0
    8.5761   -9.5389    0.0000 C   0  0  0  0  0  0  0  0  0  0  0  0
    5.7169  -11.1977    0.0000 C   0  0  0  0  0  0  0  0  0  0  0  0
    8.5719   -6.2421    0.0000 N   0  0  0  0  0  0  0  0  0  0  0  0
   10.0015   -6.2421    0.0000 O   0  0  0  0  0  0  0  0  0  0  0  0
    9.2929   -9.9473    0.0000 C   0  0  0  0  0  0  0  0  0  0  0  0
    7.8633   -9.9557    0.0000 C   0  0  0  0  0  0  0  0  0  0  0  0
    9.2846   -8.3010    0.0000 C   0  0  0  0  0  0  0  0  0  0  0  0
    7.8550   -8.3094    0.0000 C   0  0  0  0  0  0  0  0  0  0  0  0
    9.2846   -5.0042    0.0000 O   0  0  0  0  0  0  0  0  0  0  0  0
   10.0057  -11.1810    0.0000 N   0  0  0  0  0  0  0  0  0  0  0  0
   10.7142   -5.8253    0.0000 C   0  0  0  0  0  0  0  0  0  0  0  0
    7.8550   -7.4799    0.0000 C   0  0  0  0  0  0  0  0  0  0  0  0
    9.2846   -7.4799    0.0000 C   0  0  0  0  0  0  0  0  0  0  0  0
    7.1465   -9.5431    0.0000 C   0  0  0  0  0  0  0  0  0  0  0  0
    7.8633  -10.7851    0.0000 C   0  0  0  0  0  0  0  0  0  0  0  0
    8.5719   -7.0673    0.0000 C   0  0  0  0  0  0  0  0  0  0  0  0
    6.4338  -10.7851    0.0000 C   0  0  0  0  0  0  0  0  0  0  0  0
    7.1465  -11.1977    0.0000 C   0  0  0  0  0  0  0  0  0  0  0  0
    6.4338   -9.9598    0.0000 C   0  0  0  0  0  0  0  0  0  0  0  0
    9.2929  -10.7726    0.0000 C   0  0  0  0  0  0  0  0  0  0  0  0
    9.9973   -9.5306    0.0000 C   0  0  0  0  0  0  0  0  0  0  0  0
   10.7225  -10.7643    0.0000 C   0  0  0  0  0  0  0  0  0  0  0  0
   10.7059   -5.0000    0.0000 C   0  0  0  0  0  0  0  0  0  0  0  0
   10.9309   -6.6172    0.0000 C   0  0  0  0  0  0  0  0  0  0  0  0
   11.4311   -6.2296    0.0000 C   0  0  0  0  0  0  0  0  0  0  0  0
   10.7142   -9.9348    0.0000 C   0  0  0  0  0  0  0  0  0  0  0  0
  2 11  1  0  0  0  0
  3  5  3  0  0  0  0
  4  2  1  0  0  0  0
  5 20  1  0  0  0  0
  6  1  1  0  0  0  0
  7  1  1  0  0  0  0
  8  4  1  0  0  0  0
  9  4  1  0  0  0  0
 10 16  1  0  0  0  0
 11 15  1  0  0  0  0
 12  1  2  0  0  0  0
 13 23  1  0  0  0  0
 14  7  1  0  0  0  0
 15 19  1  0  0  0  0
 16 19  1  0  0  0  0
 17  9  2  0  0  0  0
 18  9  1  0  0  0  0
 19  6  1  0  0  0  0
 20 22  2  0  0  0  0
 21 18  2  0  0  0  0
 22 17  1  0  0  0  0
 23  8  2  0  0  0  0
 24  8  1  0  0  0  0
 25 29  1  0  0  0  0
 26 14  1  0  0  0  0
 27 14  1  0  0  0  0
 28 14  1  0  0  0  0
 29 24  2  0  0  0  0
 10  2  1  0  0  0  0
 21 20  1  0  0  0  0
 25 13  2  0  0  0  0
M  END
> <Molecule Name>
DNDI1459247

> <CDD Number>
CDD-1535590

> <IC50_uM>
0.026 (n=1)

$$$$

SketchEl molfile

 25 27  0  0  0  0  0  0  0  0999 V2000
    8.5682   -5.8253    0.0000 S   0  0  0  0  0  0  0  0  0  0  0  0
    7.8554   -8.7099    0.0000 N   0  0  0  0  0  0  0  0  0  0  0  0
    7.8554   -6.2380    0.0000 N   0  0  0  0  0  0  0  0  0  0  0  0
    7.8596   -9.5353    0.0000 C   0  0  0  0  0  0  0  0  0  0  0  0
    8.5682   -5.0000    0.0000 O   0  0  0  0  0  0  0  0  0  0  0  0
    8.5640   -6.6465    0.0000 O   0  0  0  0  0  0  0  0  0  0  0  0
    8.5765   -9.9438    0.0000 C   0  0  0  0  0  0  0  0  0  0  0  0
    7.1468   -9.9521    0.0000 C   0  0  0  0  0  0  0  0  0  0  0  0
    8.5682   -8.2972    0.0000 C   0  0  0  0  0  0  0  0  0  0  0  0
    7.1384   -8.3056    0.0000 C   0  0  0  0  0  0  0  0  0  0  0  0
    9.2893  -11.1776    0.0000 N   0  0  0  0  0  0  0  0  0  0  0  0
    7.1384   -7.4760    0.0000 C   0  0  0  0  0  0  0  0  0  0  0  0
    8.5682   -7.4760    0.0000 C   0  0  0  0  0  0  0  0  0  0  0  0
    7.8554   -7.0634    0.0000 C   0  0  0  0  0  0  0  0  0  0  0  0
    6.4298   -9.5394    0.0000 C   0  0  0  0  0  0  0  0  0  0  0  0
    7.1468  -10.7816    0.0000 C   0  0  0  0  0  0  0  0  0  0  0  0
    9.3894   -5.8212    0.0000 C   0  0  0  0  0  0  0  0  0  0  0  0
    5.7170  -10.7816    0.0000 C   0  0  0  0  0  0  0  0  0  0  0  0
    6.4298  -11.1943    0.0000 C   0  0  0  0  0  0  0  0  0  0  0  0
    5.7170   -9.9563    0.0000 C   0  0  0  0  0  0  0  0  0  0  0  0
    5.0000  -11.1943    0.0000 Cl  0  0  0  0  0  0  0  0  0  0  0  0
    8.5765  -10.7691    0.0000 C   0  0  0  0  0  0  0  0  0  0  0  0
    9.2810   -9.5269    0.0000 C   0  0  0  0  0  0  0  0  0  0  0  0
   10.0063  -10.7608    0.0000 C   0  0  0  0  0  0  0  0  0  0  0  0
    9.9980   -9.9313    0.0000 C   0  0  0  0  0  0  0  0  0  0  0  0
  2 10  1  0  0  0  0
  3  1  1  0  0  0  0
  4  2  1  0  0  0  0
  5  1  2  0  0  0  0
  6  1  2  0  0  0  0
  7  4  1  0  0  0  0
  8  4  1  0  0  0  0
  9 13  1  0  0  0  0
 10 12  1  0  0  0  0
 11 22  1  0  0  0  0
 12 14  1  0  0  0  0
 13 14  1  0  0  0  0
 14  3  1  0  0  0  0
 15  8  2  0  0  0  0
 16  8  1  0  0  0  0
 17  1  1  0  0  0  0
 18 20  2  0  0  0  0
 19 16  2  0  0  0  0
 20 15  1  0  0  0  0
 21 18  1  0  0  0  0
 22  7  2  0  0  0  0
 23  7  1  0  0  0  0
 24 11  2  0  0  0  0
 25 23  2  0  0  0  0
  9  2  1  0  0  0  0
 25 24  1  0  0  0  0
 19 18  1  0  0  0  0
M  END
> <Molecule Name>
DNDI1459248

> <CDD Number>
CDD-1535591

> <IC50_uM>
0.1 (n=1)

$$$$

SketchEl molfile

 31 33  0  0  0  0  0  0  0  0999 V2000
    9.9991   -5.8291    0.0000 C   0  0  0  0  0  0  0  0  0  0  0  0
    9.2868   -8.7119    0.0000 N   0  0  0  0  0  0  0  0  0  0  0  0
    9.2909   -9.5368    0.0000 C   0  0  0  0  0  0  0  0  0  0  0  0
    9.2868   -6.2415    0.0000 N   0  0  0  0  0  0  0  0  0  0  0  0
   10.7157   -6.2415    0.0000 O   0  0  0  0  0  0  0  0  0  0  0  0
   10.0075   -9.9450    0.0000 C   0  0  0  0  0  0  0  0  0  0  0  0
    8.5786   -9.9533    0.0000 C   0  0  0  0  0  0  0  0  0  0  0  0
    8.5702   -8.3078    0.0000 C   0  0  0  0  0  0  0  0  0  0  0  0
    9.9991   -8.2995    0.0000 C   0  0  0  0  0  0  0  0  0  0  0  0
    9.9991   -5.0042    0.0000 O   0  0  0  0  0  0  0  0  0  0  0  0
   10.7198  -11.1781    0.0000 N   0  0  0  0  0  0  0  0  0  0  0  0
   11.4281   -5.8249    0.0000 C   0  0  0  0  0  0  0  0  0  0  0  0
    9.9991   -7.4788    0.0000 C   0  0  0  0  0  0  0  0  0  0  0  0
    8.5702   -7.4788    0.0000 C   0  0  0  0  0  0  0  0  0  0  0  0
    7.8620   -9.5409    0.0000 C   0  0  0  0  0  0  0  0  0  0  0  0
    8.5786  -10.7824    0.0000 C   0  0  0  0  0  0  0  0  0  0  0  0
    9.2868   -7.0663    0.0000 C   0  0  0  0  0  0  0  0  0  0  0  0
    6.4331  -11.1948    0.0000 O   0  0  0  0  0  0  0  0  0  0  0  0
    7.1496  -10.7824    0.0000 C   0  0  0  0  0  0  0  0  0  0  0  0
    7.1496   -9.9533    0.0000 C   0  0  0  0  0  0  0  0  0  0  0  0
    7.8620  -11.1948    0.0000 C   0  0  0  0  0  0  0  0  0  0  0  0
   10.0075  -10.7699    0.0000 C   0  0  0  0  0  0  0  0  0  0  0  0
    5.7165  -10.7782    0.0000 C   0  0  0  0  0  0  0  0  0  0  0  0
   10.7115   -9.5284    0.0000 C   0  0  0  0  0  0  0  0  0  0  0  0
   11.4364  -10.7615    0.0000 C   0  0  0  0  0  0  0  0  0  0  0  0
   11.4197   -5.0000    0.0000 C   0  0  0  0  0  0  0  0  0  0  0  0
   11.6447   -6.6164    0.0000 C   0  0  0  0  0  0  0  0  0  0  0  0
   12.1446   -6.2290    0.0000 C   0  0  0  0  0  0  0  0  0  0  0  0
   11.4281   -9.9325    0.0000 C   0  0  0  0  0  0  0  0  0  0  0  0
    5.7124   -9.9533    0.0000 C   0  0  0  0  0  0  0  0  0  0  0  0
    5.0000  -11.1948    0.0000 C   0  0  0  0  0  0  0  0  0  0  0  0
  2  8  1  0  0  0  0
  3  2  1  0  0  0  0
  4  1  1  0  0  0  0
  5  1  1  0  0  0  0
  6  3  1  0  0  0  0
  7  3  1  0  0  0  0
  8 14  1  0  0  0  0
  9 13  1  0  0  0  0
 10  1  2  0  0  0  0
 11 22  1  0  0  0  0
 12  5  1  0  0  0  0
 13 17  1  0  0  0  0
 14 17  1  0  0  0  0
 15  7  2  0  0  0  0
 16  7  1  0  0  0  0
 17  4  1  0  0  0  0
 18 19  1  0  0  0  0
 19 20  2  0  0  0  0
 20 15  1  0  0  0  0
 21 16  2  0  0  0  0
 22  6  2  0  0  0  0
 23 18  1  0  0  0  0
 24  6  1  0  0  0  0
 25 29  1  0  0  0  0
 26 12  1  0  0  0  0
 27 12  1  0  0  0  0
 28 12  1  0  0  0  0
 29 24  2  0  0  0  0
 30 23  1  0  0  0  0
 31 23  1  0  0  0  0
  9  2  1  0  0  0  0
 21 19  1  0  0  0  0
 25 11  2  0  0  0  0
M  END
> <Molecule Name>
DNDI1459249

> <CDD Number>
CDD-1535592

> <IC50_uM>
0.025 (n=1)

$$$$

SketchEl molfile

 28 30  0  0  0  0  0  0  0  0999 V2000
    8.5671   -5.8251    0.0000 C   0  0  0  0  0  0  0  0  0  0  0  0
    7.8545   -8.7088    0.0000 N   0  0  0  0  0  0  0  0  0  0  0  0
    7.8545   -6.2376    0.0000 N   0  0  0  0  0  0  0  0  0  0  0  0
    7.8587   -9.5339    0.0000 C   0  0  0  0  0  0  0  0  0  0  0  0
    9.2838   -6.2376    0.0000 N   0  0  0  0  0  0  0  0  0  0  0  0
    8.5754   -9.9423    0.0000 C   0  0  0  0  0  0  0  0  0  0  0  0
    8.5671   -5.0000    0.0000 O   0  0  0  0  0  0  0  0  0  0  0  0
    7.1461   -9.9506    0.0000 C   0  0  0  0  0  0  0  0  0  0  0  0
    8.5671   -8.2962    0.0000 C   0  0  0  0  0  0  0  0  0  0  0  0
    7.1378   -8.3046    0.0000 C   0  0  0  0  0  0  0  0  0  0  0  0
    9.2880  -11.1757    0.0000 N   0  0  0  0  0  0  0  0  0  0  0  0
    7.8545   -7.0627    0.0000 C   0  0  0  0  0  0  0  0  0  0  0  0
    7.1378   -7.4753    0.0000 C   0  0  0  0  0  0  0  0  0  0  0  0
    8.5671   -7.4753    0.0000 C   0  0  0  0  0  0  0  0  0  0  0  0
    6.4293   -9.5380    0.0000 C   0  0  0  0  0  0  0  0  0  0  0  0
    7.1461  -10.7799    0.0000 C   0  0  0  0  0  0  0  0  0  0  0  0
    5.7168  -10.7799    0.0000 C   0  0  0  0  0  0  0  0  0  0  0  0
    5.7168   -9.9548    0.0000 C   0  0  0  0  0  0  0  0  0  0  0  0
    6.4293  -11.1924    0.0000 C   0  0  0  0  0  0  0  0  0  0  0  0
    5.0000  -11.1924    0.0000 Cl  0  0  0  0  0  0  0  0  0  0  0  0
    8.5754  -10.7673    0.0000 C   0  0  0  0  0  0  0  0  0  0  0  0
    9.2838   -7.0627    0.0000 C   0  0  0  0  0  0  0  0  0  0  0  0
    9.9964   -5.8251    0.0000 C   0  0  0  0  0  0  0  0  0  0  0  0
    9.2797   -9.5255    0.0000 C   0  0  0  0  0  0  0  0  0  0  0  0
   10.0048  -10.7590    0.0000 C   0  0  0  0  0  0  0  0  0  0  0  0
    9.9964   -9.9297    0.0000 C   0  0  0  0  0  0  0  0  0  0  0  0
   10.7132   -6.2376    0.0000 C   0  0  0  0  0  0  0  0  0  0  0  0
    9.9964   -7.4711    0.0000 C   0  0  0  0  0  0  0  0  0  0  0  0
  2 10  1  0  0  0  0
  3  1  1  0  0  0  0
  4  2  1  0  0  0  0
  5  1  1  0  0  0  0
  6  4  1  0  0  0  0
  7  1  2  0  0  0  0
  8  4  1  0  0  0  0
  9 14  1  0  0  0  0
 10 13  1  0  0  0  0
 11 21  1  0  0  0  0
 12  3  1  0  0  0  0
 13 12  1  0  0  0  0
 14 12  1  0  0  0  0
 15  8  2  0  0  0  0
 16  8  1  0  0  0  0
 17 18  2  0  0  0  0
 18 15  1  0  0  0  0
 19 16  2  0  0  0  0
 20 17  1  0  0  0  0
 21  6  2  0  0  0  0
 22  5  1  0  0  0  0
 23  5  1  0  0  0  0
 24  6  1  0  0  0  0
 25 26  1  0  0  0  0
 26 24  2  0  0  0  0
 27 23  1  0  0  0  0
 28 22  1  0  0  0  0
  9  2  1  0  0  0  0
 19 17  1  0  0  0  0
 25 11  2  0  0  0  0
M  END
> <Molecule Name>
DNDI1459250

> <CDD Number>
CDD-1535593

> <IC50_uM>
0.12 (n=1)

$$$$

SketchEl molfile

 32 35  0  0  0  0  0  0  0  0999 V2000
    9.2875   -8.7083    0.0000 N   0  0  0  0  0  0  0  0  0  0  0  0
   10.0000   -5.8250    0.0000 C   0  0  0  0  0  0  0  0  0  0  0  0
    9.2875   -6.2375    0.0000 N   0  0  0  0  0  0  0  0  0  0  0  0
    9.2917   -9.5334    0.0000 C   0  0  0  0  0  0  0  0  0  0  0  0
   10.0084   -9.9417    0.0000 C   0  0  0  0  0  0  0  0  0  0  0  0
    8.5792   -9.9500    0.0000 C   0  0  0  0  0  0  0  0  0  0  0  0
   10.0000   -8.2958    0.0000 C   0  0  0  0  0  0  0  0  0  0  0  0
    8.5709   -8.3042    0.0000 C   0  0  0  0  0  0  0  0  0  0  0  0
   10.0000   -5.0000    0.0000 O   0  0  0  0  0  0  0  0  0  0  0  0
   10.7167   -6.2375    0.0000 C   0  0  0  0  0  0  0  0  0  0  0  0
   10.7209  -11.1750    0.0000 N   0  0  0  0  0  0  0  0  0  0  0  0
    9.2875   -7.0625    0.0000 C   0  0  0  0  0  0  0  0  0  0  0  0
    8.5709   -7.4750    0.0000 C   0  0  0  0  0  0  0  0  0  0  0  0
   10.0000   -7.4750    0.0000 C   0  0  0  0  0  0  0  0  0  0  0  0
    7.8625   -9.5375    0.0000 C   0  0  0  0  0  0  0  0  0  0  0  0
    8.5792  -10.7792    0.0000 C   0  0  0  0  0  0  0  0  0  0  0  0
    6.4333  -11.1917    0.0000 O   0  0  0  0  0  0  0  0  0  0  0  0
    7.1500  -10.7792    0.0000 C   0  0  0  0  0  0  0  0  0  0  0  0
    7.8625  -11.1917    0.0000 C   0  0  0  0  0  0  0  0  0  0  0  0
    7.1500   -9.9542    0.0000 C   0  0  0  0  0  0  0  0  0  0  0  0
   10.0084  -10.7667    0.0000 C   0  0  0  0  0  0  0  0  0  0  0  0
    5.7167  -10.7792    0.0000 C   0  0  0  0  0  0  0  0  0  0  0  0
   10.7126   -9.5250    0.0000 C   0  0  0  0  0  0  0  0  0  0  0  0
   11.4376  -10.7584    0.0000 C   0  0  0  0  0  0  0  0  0  0  0  0
   10.7126   -7.0625    0.0000 C   0  0  0  0  0  0  0  0  0  0  0  0
   11.4251   -5.8250    0.0000 C   0  0  0  0  0  0  0  0  0  0  0  0
   11.4292   -9.9292    0.0000 C   0  0  0  0  0  0  0  0  0  0  0  0
    5.7125   -9.9542    0.0000 C   0  0  0  0  0  0  0  0  0  0  0  0
    5.0000  -11.1917    0.0000 C   0  0  0  0  0  0  0  0  0  0  0  0
   12.1376   -6.2333    0.0000 C   0  0  0  0  0  0  0  0  0  0  0  0
   11.4251   -7.4750    0.0000 C   0  0  0  0  0  0  0  0  0  0  0  0
   12.1417   -7.0625    0.0000 C   0  0  0  0  0  0  0  0  0  0  0  0
  2  3  1  0  0  0  0
  3 12  1  0  0  0  0
  4  1  1  0  0  0  0
  5  4  1  0  0  0  0
  6  4  1  0  0  0  0
  7  1  1  0  0  0  0
  8  1  1  0  0  0  0
  9  2  2  0  0  0  0
 10  2  1  0  0  0  0
 11 21  1  0  0  0  0
 12 13  1  0  0  0  0
 13  8  1  0  0  0  0
 14  7  1  0  0  0  0
 15  6  2  0  0  0  0
 16  6  1  0  0  0  0
 17 18  1  0  0  0  0
 18 20  2  0  0  0  0
 19 16  2  0  0  0  0
 20 15  1  0  0  0  0
 21  5  2  0  0  0  0
 22 17  1  0  0  0  0
 23  5  1  0  0  0  0
 24 27  1  0  0  0  0
 25 10  2  0  0  0  0
 26 10  1  0  0  0  0
 27 23  2  0  0  0  0
 28 22  1  0  0  0  0
 29 22  1  0  0  0  0
 30 26  2  0  0  0  0
 31 25  1  0  0  0  0
 32 30  1  0  0  0  0
 12 14  1  0  0  0  0
 19 18  1  0  0  0  0
 24 11  2  0  0  0  0
 32 31  2  0  0  0  0
M  END
> <Molecule Name>
DNDI1459251

> <CDD Number>
CDD-1535594

> <IC50_uM>
0.061 (n=1)

$$$$

SketchEl molfile

 28 30  0  0  0  0  0  0  0  0999 V2000
    8.5671   -5.8251    0.0000 C   0  0  0  0  0  0  0  0  0  0  0  0
    7.8545   -8.7088    0.0000 N   0  0  0  0  0  0  0  0  0  0  0  0
    7.8545   -6.2376    0.0000 N   0  0  0  0  0  0  0  0  0  0  0  0
    7.8587   -9.5339    0.0000 C   0  0  0  0  0  0  0  0  0  0  0  0
    8.5754   -9.9423    0.0000 C   0  0  0  0  0  0  0  0  0  0  0  0
    9.2838   -6.2376    0.0000 N   0  0  0  0  0  0  0  0  0  0  0  0
    8.5671   -5.0000    0.0000 O   0  0  0  0  0  0  0  0  0  0  0  0
    7.1461   -9.9506    0.0000 C   0  0  0  0  0  0  0  0  0  0  0  0
    8.5671   -8.2962    0.0000 C   0  0  0  0  0  0  0  0  0  0  0  0
    7.1378   -8.3046    0.0000 C   0  0  0  0  0  0  0  0  0  0  0  0
    9.9964   -9.9297    0.0000 N   0  0  0  0  0  0  0  0  0  0  0  0
    9.2880  -11.1757    0.0000 N   0  0  0  0  0  0  0  0  0  0  0  0
   10.0048  -10.7590    0.0000 C   0  0  0  0  0  0  0  0  0  0  0  0
    7.8545   -7.0627    0.0000 C   0  0  0  0  0  0  0  0  0  0  0  0
    7.1378   -7.4753    0.0000 C   0  0  0  0  0  0  0  0  0  0  0  0
    8.5671   -7.4753    0.0000 C   0  0  0  0  0  0  0  0  0  0  0  0
    6.4293   -9.5380    0.0000 C   0  0  0  0  0  0  0  0  0  0  0  0
    7.1461  -10.7799    0.0000 C   0  0  0  0  0  0  0  0  0  0  0  0
    5.7168  -10.7799    0.0000 C   0  0  0  0  0  0  0  0  0  0  0  0
    8.5754  -10.7673    0.0000 C   0  0  0  0  0  0  0  0  0  0  0  0
    9.2797   -9.5255    0.0000 C   0  0  0  0  0  0  0  0  0  0  0  0
    5.7168   -9.9548    0.0000 C   0  0  0  0  0  0  0  0  0  0  0  0
    6.4293  -11.1924    0.0000 C   0  0  0  0  0  0  0  0  0  0  0  0
    5.0000  -11.1924    0.0000 Cl  0  0  0  0  0  0  0  0  0  0  0  0
    9.2838   -7.0627    0.0000 C   0  0  0  0  0  0  0  0  0  0  0  0
    9.9964   -5.8251    0.0000 C   0  0  0  0  0  0  0  0  0  0  0  0
   10.7132   -6.2376    0.0000 C   0  0  0  0  0  0  0  0  0  0  0  0
    9.9964   -7.4711    0.0000 C   0  0  0  0  0  0  0  0  0  0  0  0
  2 10  1  0  0  0  0
  3  1  1  0  0  0  0
  4  2  1  0  0  0  0
  5  4  1  0  0  0  0
  6  1  1  0  0  0  0
  7  1  2  0  0  0  0
  8  4  1  0  0  0  0
  9 16  1  0  0  0  0
 10 15  1  0  0  0  0
 11 21  2  0  0  0  0
 12 20  1  0  0  0  0
 13 11  1  0  0  0  0
 14  3  1  0  0  0  0
 15 14  1  0  0  0  0
 16 14  1  0  0  0  0
 17  8  2  0  0  0  0
 18  8  1  0  0  0  0
 19 22  2  0  0  0  0
 20  5  2  0  0  0  0
 21  5  1  0  0  0  0
 22 17  1  0  0  0  0
 23 18  2  0  0  0  0
 24 19  1  0  0  0  0
 25  6  1  0  0  0  0
 26  6  1  0  0  0  0
 27 26  1  0  0  0  0
 28 25  1  0  0  0  0
  9  2  1  0  0  0  0
 23 19  1  0  0  0  0
 13 12  2  0  0  0  0
M  END
> <Molecule Name>
DNDI1459252

> <CDD Number>
CDD-1535595

> <IC50_uM>
0.11 (n=1)

$$$$

SketchEl molfile

 29 32  0  0  0  0  0  0  0  0999 V2000
    9.9998   -5.8249    0.0000 C   0  0  0  0  0  0  0  0  0  0  0  0
    9.2873   -8.7082    0.0000 N   0  0  0  0  0  0  0  0  0  0  0  0
   10.7164   -6.2374    0.0000 C   0  0  0  0  0  0  0  0  0  0  0  0
   11.1289   -6.9499    0.0000 C   0  0  0  0  0  0  0  0  0  0  0  0
   11.5414   -6.2374    0.0000 C   0  0  0  0  0  0  0  0  0  0  0  0
    9.2873   -6.2374    0.0000 N   0  0  0  0  0  0  0  0  0  0  0  0
    9.2915   -9.5331    0.0000 C   0  0  0  0  0  0  0  0  0  0  0  0
   10.0081   -9.9414    0.0000 C   0  0  0  0  0  0  0  0  0  0  0  0
    8.5790   -9.9498    0.0000 C   0  0  0  0  0  0  0  0  0  0  0  0
    8.5707   -8.3040    0.0000 C   0  0  0  0  0  0  0  0  0  0  0  0
    9.9998   -8.2957    0.0000 C   0  0  0  0  0  0  0  0  0  0  0  0
    9.9998   -5.0000    0.0000 O   0  0  0  0  0  0  0  0  0  0  0  0
   10.7206  -11.1747    0.0000 N   0  0  0  0  0  0  0  0  0  0  0  0
    9.2873   -7.0624    0.0000 C   0  0  0  0  0  0  0  0  0  0  0  0
    8.5707   -7.4749    0.0000 C   0  0  0  0  0  0  0  0  0  0  0  0
    9.9998   -7.4749    0.0000 C   0  0  0  0  0  0  0  0  0  0  0  0
    7.8624   -9.5373    0.0000 C   0  0  0  0  0  0  0  0  0  0  0  0
    8.5790  -10.7789    0.0000 C   0  0  0  0  0  0  0  0  0  0  0  0
    6.4333  -11.1914    0.0000 O   0  0  0  0  0  0  0  0  0  0  0  0
    7.1499  -10.7789    0.0000 C   0  0  0  0  0  0  0  0  0  0  0  0
    7.8624  -11.1914    0.0000 C   0  0  0  0  0  0  0  0  0  0  0  0
    7.1499   -9.9539    0.0000 C   0  0  0  0  0  0  0  0  0  0  0  0
   10.0081  -10.7664    0.0000 C   0  0  0  0  0  0  0  0  0  0  0  0
    5.7125  -10.7789    0.0000 C   0  0  0  0  0  0  0  0  0  0  0  0
   10.7123   -9.5248    0.0000 C   0  0  0  0  0  0  0  0  0  0  0  0
   11.4372  -10.7581    0.0000 C   0  0  0  0  0  0  0  0  0  0  0  0
   11.4289   -9.9289    0.0000 C   0  0  0  0  0  0  0  0  0  0  0  0
    5.7125   -9.9539    0.0000 C   0  0  0  0  0  0  0  0  0  0  0  0
    5.0000  -11.1914    0.0000 C   0  0  0  0  0  0  0  0  0  0  0  0
  2 10  1  0  0  0  0
  3  1  1  0  0  0  0
  4  3  1  0  0  0  0
  5  3  1  0  0  0  0
  6  1  1  0  0  0  0
  7  2  1  0  0  0  0
  8  7  1  0  0  0  0
  9  7  1  0  0  0  0
 10 15  1  0  0  0  0
 11 16  1  0  0  0  0
 12  1  2  0  0  0  0
 13 23  1  0  0  0  0
 14  6  1  0  0  0  0
 15 14  1  0  0  0  0
 16 14  1  0  0  0  0
 17  9  2  0  0  0  0
 18  9  1  0  0  0  0
 19 20  1  0  0  0  0
 20 22  2  0  0  0  0
 21 18  2  0  0  0  0
 22 17  1  0  0  0  0
 23  8  2  0  0  0  0
 24 19  1  0  0  0  0
 25  8  1  0  0  0  0
 26 27  1  0  0  0  0
 27 25  2  0  0  0  0
 28 24  1  0  0  0  0
 29 24  1  0  0  0  0
  4  5  1  0  0  0  0
 11  2  1  0  0  0  0
 21 20  1  0  0  0  0
 26 13  2  0  0  0  0
M  END
> <Molecule Name>
DNDI1459253

> <CDD Number>
CDD-1535596

> <IC50_uM>
0.38 (n=1)

$$$$

SketchEl molfile

 28 30  0  0  0  0  0  0  0  0999 V2000
   10.0003   -5.8251    0.0000 S   0  0  0  0  0  0  0  0  0  0  0  0
    9.2878   -8.7086    0.0000 N   0  0  0  0  0  0  0  0  0  0  0  0
    9.2878   -6.2376    0.0000 N   0  0  0  0  0  0  0  0  0  0  0  0
    9.2919   -9.5337    0.0000 C   0  0  0  0  0  0  0  0  0  0  0  0
   10.0003   -5.0000    0.0000 O   0  0  0  0  0  0  0  0  0  0  0  0
    9.9962   -6.6460    0.0000 O   0  0  0  0  0  0  0  0  0  0  0  0
   10.0087   -9.9420    0.0000 C   0  0  0  0  0  0  0  0  0  0  0  0
    8.5794   -9.9504    0.0000 C   0  0  0  0  0  0  0  0  0  0  0  0
   10.0003   -8.2961    0.0000 C   0  0  0  0  0  0  0  0  0  0  0  0
    8.5711   -8.3044    0.0000 C   0  0  0  0  0  0  0  0  0  0  0  0
   10.7212  -11.1754    0.0000 N   0  0  0  0  0  0  0  0  0  0  0  0
    8.5711   -7.4752    0.0000 C   0  0  0  0  0  0  0  0  0  0  0  0
   10.0003   -7.4752    0.0000 C   0  0  0  0  0  0  0  0  0  0  0  0
    9.2878   -7.0627    0.0000 C   0  0  0  0  0  0  0  0  0  0  0  0
    7.8627   -9.5378    0.0000 C   0  0  0  0  0  0  0  0  0  0  0  0
    8.5794  -10.7796    0.0000 C   0  0  0  0  0  0  0  0  0  0  0  0
    6.4334  -11.1921    0.0000 O   0  0  0  0  0  0  0  0  0  0  0  0
    7.1501  -10.7796    0.0000 C   0  0  0  0  0  0  0  0  0  0  0  0
   10.8254   -5.8209    0.0000 C   0  0  0  0  0  0  0  0  0  0  0  0
    7.1501   -9.9545    0.0000 C   0  0  0  0  0  0  0  0  0  0  0  0
    7.8627  -11.1921    0.0000 C   0  0  0  0  0  0  0  0  0  0  0  0
   10.0087  -10.7671    0.0000 C   0  0  0  0  0  0  0  0  0  0  0  0
    5.7125  -10.7796    0.0000 C   0  0  0  0  0  0  0  0  0  0  0  0
   10.7129   -9.5253    0.0000 C   0  0  0  0  0  0  0  0  0  0  0  0
   11.4379  -10.7587    0.0000 C   0  0  0  0  0  0  0  0  0  0  0  0
    5.0000  -11.1921    0.0000 C   0  0  0  0  0  0  0  0  0  0  0  0
   11.4296   -9.9295    0.0000 C   0  0  0  0  0  0  0  0  0  0  0  0
    5.7125   -9.9545    0.0000 C   0  0  0  0  0  0  0  0  0  0  0  0
  2 10  1  0  0  0  0
  3  1  1  0  0  0  0
  4  2  1  0  0  0  0
  5  1  2  0  0  0  0
  6  1  2  0  0  0  0
  7  4  1  0  0  0  0
  8  4  1  0  0  0  0
  9 13  1  0  0  0  0
 10 12  1  0  0  0  0
 11 22  1  0  0  0  0
 12 14  1  0  0  0  0
 13 14  1  0  0  0  0
 14  3  1  0  0  0  0
 15  8  2  0  0  0  0
 16  8  1  0  0  0  0
 17 18  1  0  0  0  0
 18 20  2  0  0  0  0
 19  1  1  0  0  0  0
 20 15  1  0  0  0  0
 21 16  2  0  0  0  0
 22  7  2  0  0  0  0
 23 17  1  0  0  0  0
 24  7  1  0  0  0  0
 25 27  1  0  0  0  0
 26 23  1  0  0  0  0
 27 24  2  0  0  0  0
 28 23  1  0  0  0  0
  9  2  1  0  0  0  0
 21 18  1  0  0  0  0
 25 11  2  0  0  0  0
M  END
> <Molecule Name>
DNDI1459254

> <CDD Number>
CDD-1535597

> <IC50_uM>
0.11 (n=1)

$$$$

SketchEl molfile

 30 33  0  0  0  0  0  0  0  0999 V2000
    8.5666   -6.2375    0.0000 C   0  0  0  0  0  0  0  0  0  0  0  0
    7.8541   -9.1207    0.0000 N   0  0  0  0  0  0  0  0  0  0  0  0
    7.8582   -9.9457    0.0000 C   0  0  0  0  0  0  0  0  0  0  0  0
    8.5749  -10.3540    0.0000 C   0  0  0  0  0  0  0  0  0  0  0  0
    9.2832   -6.6500    0.0000 N   0  0  0  0  0  0  0  0  0  0  0  0
    7.8541   -6.6500    0.0000 N   0  0  0  0  0  0  0  0  0  0  0  0
    7.1458  -10.3624    0.0000 C   0  0  0  0  0  0  0  0  0  0  0  0
    7.1374   -8.7166    0.0000 C   0  0  0  0  0  0  0  0  0  0  0  0
    8.5666   -8.7083    0.0000 C   0  0  0  0  0  0  0  0  0  0  0  0
    8.5666   -5.4125    0.0000 O   0  0  0  0  0  0  0  0  0  0  0  0
    9.9957  -10.3415    0.0000 N   0  0  0  0  0  0  0  0  0  0  0  0
    9.2874  -11.5873    0.0000 N   0  0  0  0  0  0  0  0  0  0  0  0
   10.0040  -11.1707    0.0000 C   0  0  0  0  0  0  0  0  0  0  0  0
    7.1374   -7.8875    0.0000 C   0  0  0  0  0  0  0  0  0  0  0  0
    8.5666   -7.8875    0.0000 C   0  0  0  0  0  0  0  0  0  0  0  0
    7.1458  -11.1915    0.0000 C   0  0  0  0  0  0  0  0  0  0  0  0
    6.4291   -9.9499    0.0000 C   0  0  0  0  0  0  0  0  0  0  0  0
    7.8541   -7.4750    0.0000 C   0  0  0  0  0  0  0  0  0  0  0  0
    5.7166  -11.1915    0.0000 C   0  0  0  0  0  0  0  0  0  0  0  0
    8.5749  -11.1790    0.0000 C   0  0  0  0  0  0  0  0  0  0  0  0
    9.2790   -9.9374    0.0000 C   0  0  0  0  0  0  0  0  0  0  0  0
    9.9957   -6.2375    0.0000 C   0  0  0  0  0  0  0  0  0  0  0  0
    6.4291  -11.6040    0.0000 C   0  0  0  0  0  0  0  0  0  0  0  0
    5.7166  -10.3665    0.0000 C   0  0  0  0  0  0  0  0  0  0  0  0
    5.0000  -11.6040    0.0000 Cl  0  0  0  0  0  0  0  0  0  0  0  0
   10.7081   -6.6500    0.0000 C   0  0  0  0  0  0  0  0  0  0  0  0
    9.9915   -5.4167    0.0000 C   0  0  0  0  0  0  0  0  0  0  0  0
   10.7040   -5.0000    0.0000 C   0  0  0  0  0  0  0  0  0  0  0  0
   11.4248   -6.2375    0.0000 C   0  0  0  0  0  0  0  0  0  0  0  0
   11.4248   -5.4125    0.0000 C   0  0  0  0  0  0  0  0  0  0  0  0
  2  8  1  0  0  0  0
  3  2  1  0  0  0  0
  4  3  1  0  0  0  0
  5  1  1  0  0  0  0
  6  1  1  0  0  0  0
  7  3  1  0  0  0  0
  8 14  1  0  0  0  0
  9 15  1  0  0  0  0
 10  1  2  0  0  0  0
 11 21  2  0  0  0  0
 12 20  1  0  0  0  0
 13 11  1  0  0  0  0
 14 18  1  0  0  0  0
 15 18  1  0  0  0  0
 16  7  1  0  0  0  0
 17  7  2  0  0  0  0
 18  6  1  0  0  0  0
 19 24  2  0  0  0  0
 20  4  2  0  0  0  0
 21  4  1  0  0  0  0
 22  5  1  0  0  0  0
 23 16  2  0  0  0  0
 24 17  1  0  0  0  0
 25 19  1  0  0  0  0
 26 22  2  0  0  0  0
 27 22  1  0  0  0  0
 28 27  2  0  0  0  0
 29 26  1  0  0  0  0
 30 28  1  0  0  0  0
  9  2  1  0  0  0  0
 30 29  2  0  0  0  0
 23 19  1  0  0  0  0
 13 12  2  0  0  0  0
M  END
> <Molecule Name>
DNDI1459255

> <CDD Number>
CDD-1535598

> <IC50_uM>
0.1 (n=1)

$$$$

SketchEl molfile

 26 29  0  0  0  0  0  0  0  0999 V2000
    8.5668   -5.8250    0.0000 C   0  0  0  0  0  0  0  0  0  0  0  0
    7.8542   -8.7084    0.0000 N   0  0  0  0  0  0  0  0  0  0  0  0
    9.2835   -6.2375    0.0000 C   0  0  0  0  0  0  0  0  0  0  0  0
    7.8584   -9.5334    0.0000 C   0  0  0  0  0  0  0  0  0  0  0  0
    9.6960   -6.9500    0.0000 C   0  0  0  0  0  0  0  0  0  0  0  0
   10.1085   -6.2375    0.0000 C   0  0  0  0  0  0  0  0  0  0  0  0
    7.8542   -6.2375    0.0000 N   0  0  0  0  0  0  0  0  0  0  0  0
    8.5751   -9.9418    0.0000 C   0  0  0  0  0  0  0  0  0  0  0  0
    7.1459   -9.9501    0.0000 C   0  0  0  0  0  0  0  0  0  0  0  0
    7.1376   -8.3042    0.0000 C   0  0  0  0  0  0  0  0  0  0  0  0
    8.5668   -8.2959    0.0000 C   0  0  0  0  0  0  0  0  0  0  0  0
    9.2876  -11.1751    0.0000 N   0  0  0  0  0  0  0  0  0  0  0  0
    9.9960   -9.9293    0.0000 N   0  0  0  0  0  0  0  0  0  0  0  0
    8.5668   -5.0000    0.0000 O   0  0  0  0  0  0  0  0  0  0  0  0
   10.0043  -10.7585    0.0000 C   0  0  0  0  0  0  0  0  0  0  0  0
    7.8542   -7.0625    0.0000 C   0  0  0  0  0  0  0  0  0  0  0  0
    7.1376   -7.4750    0.0000 C   0  0  0  0  0  0  0  0  0  0  0  0
    8.5668   -7.4750    0.0000 C   0  0  0  0  0  0  0  0  0  0  0  0
    6.4292   -9.5376    0.0000 C   0  0  0  0  0  0  0  0  0  0  0  0
    7.1459  -10.7793    0.0000 C   0  0  0  0  0  0  0  0  0  0  0  0
    5.7167  -10.7793    0.0000 C   0  0  0  0  0  0  0  0  0  0  0  0
    8.5751  -10.7668    0.0000 C   0  0  0  0  0  0  0  0  0  0  0  0
    9.2793   -9.5251    0.0000 C   0  0  0  0  0  0  0  0  0  0  0  0
    5.7167   -9.9501    0.0000 C   0  0  0  0  0  0  0  0  0  0  0  0
    6.4292  -11.1918    0.0000 C   0  0  0  0  0  0  0  0  0  0  0  0
    5.0000  -11.1918    0.0000 Cl  0  0  0  0  0  0  0  0  0  0  0  0
  2 10  1  0  0  0  0
  3  1  1  0  0  0  0
  4  2  1  0  0  0  0
  5  3  1  0  0  0  0
  6  3  1  0  0  0  0
  7  1  1  0  0  0  0
  8  4  1  0  0  0  0
  9  4  1  0  0  0  0
 10 17  1  0  0  0  0
 11 18  1  0  0  0  0
 12 22  1  0  0  0  0
 13 23  2  0  0  0  0
 14  1  2  0  0  0  0
 15 12  2  0  0  0  0
 16  7  1  0  0  0  0
 17 16  1  0  0  0  0
 18 16  1  0  0  0  0
 19  9  2  0  0  0  0
 20  9  1  0  0  0  0
 21 24  2  0  0  0  0
 22  8  2  0  0  0  0
 23  8  1  0  0  0  0
 24 19  1  0  0  0  0
 25 20  2  0  0  0  0
 26 21  1  0  0  0  0
  5  6  1  0  0  0  0
 11  2  1  0  0  0  0
 25 21  1  0  0  0  0
 13 15  1  0  0  0  0
M  END
> <Molecule Name>
DNDI1459256

> <CDD Number>
CDD-1535599

> <IC50_uM>
0.48 (n=1)

$$$$

SketchEl molfile

 31 33  0  0  0  0  0  0  0  0999 V2000
   10.0005   -5.8251    0.0000 C   0  0  0  0  0  0  0  0  0  0  0  0
    9.2879   -8.7087    0.0000 N   0  0  0  0  0  0  0  0  0  0  0  0
    9.2879   -6.2376    0.0000 N   0  0  0  0  0  0  0  0  0  0  0  0
    9.2921   -9.5338    0.0000 C   0  0  0  0  0  0  0  0  0  0  0  0
   10.7172   -6.2376    0.0000 N   0  0  0  0  0  0  0  0  0  0  0  0
   10.0088   -9.9422    0.0000 C   0  0  0  0  0  0  0  0  0  0  0  0
   10.0005   -5.0000    0.0000 O   0  0  0  0  0  0  0  0  0  0  0  0
    8.5795   -9.9505    0.0000 C   0  0  0  0  0  0  0  0  0  0  0  0
   10.0005   -8.2962    0.0000 C   0  0  0  0  0  0  0  0  0  0  0  0
    8.5712   -8.3045    0.0000 C   0  0  0  0  0  0  0  0  0  0  0  0
   10.7214  -11.1756    0.0000 N   0  0  0  0  0  0  0  0  0  0  0  0
    9.2879   -7.0627    0.0000 C   0  0  0  0  0  0  0  0  0  0  0  0
    8.5712   -7.4753    0.0000 C   0  0  0  0  0  0  0  0  0  0  0  0
   10.0005   -7.4753    0.0000 C   0  0  0  0  0  0  0  0  0  0  0  0
    7.8628   -9.5380    0.0000 C   0  0  0  0  0  0  0  0  0  0  0  0
    8.5795  -10.7798    0.0000 C   0  0  0  0  0  0  0  0  0  0  0  0
    6.4335  -11.1923    0.0000 O   0  0  0  0  0  0  0  0  0  0  0  0
    7.1502  -10.7798    0.0000 C   0  0  0  0  0  0  0  0  0  0  0  0
    7.8628  -11.1923    0.0000 C   0  0  0  0  0  0  0  0  0  0  0  0
    7.1502   -9.9547    0.0000 C   0  0  0  0  0  0  0  0  0  0  0  0
   10.0088  -10.7673    0.0000 C   0  0  0  0  0  0  0  0  0  0  0  0
   10.7172   -7.0627    0.0000 C   0  0  0  0  0  0  0  0  0  0  0  0
   11.4298   -5.8251    0.0000 C   0  0  0  0  0  0  0  0  0  0  0  0
    5.7126  -10.7798    0.0000 C   0  0  0  0  0  0  0  0  0  0  0  0
   10.7131   -9.5255    0.0000 C   0  0  0  0  0  0  0  0  0  0  0  0
   11.4381  -10.7589    0.0000 C   0  0  0  0  0  0  0  0  0  0  0  0
    5.0000  -11.1923    0.0000 C   0  0  0  0  0  0  0  0  0  0  0  0
   11.4298   -9.9297    0.0000 C   0  0  0  0  0  0  0  0  0  0  0  0
    5.7126   -9.9547    0.0000 C   0  0  0  0  0  0  0  0  0  0  0  0
   12.1466   -6.2376    0.0000 C   0  0  0  0  0  0  0  0  0  0  0  0
   11.4256   -7.4711    0.0000 C   0  0  0  0  0  0  0  0  0  0  0  0
  2 10  1  0  0  0  0
  3  1  1  0  0  0  0
  4  2  1  0  0  0  0
  5  1  1  0  0  0  0
  6  4  1  0  0  0  0
  7  1  2  0  0  0  0
  8  4  1  0  0  0  0
  9 14  1  0  0  0  0
 10 13  1  0  0  0  0
 11 21  1  0  0  0  0
 12  3  1  0  0  0  0
 13 12  1  0  0  0  0
 14 12  1  0  0  0  0
 15  8  2  0  0  0  0
 16  8  1  0  0  0  0
 17 18  1  0  0  0  0
 18 20  2  0  0  0  0
 19 16  2  0  0  0  0
 20 15  1  0  0  0  0
 21  6  2  0  0  0  0
 22  5  1  0  0  0  0
 23  5  1  0  0  0  0
 24 17  1  0  0  0  0
 25  6  1  0  0  0  0
 26 28  1  0  0  0  0
 27 24  1  0  0  0  0
 28 25  2  0  0  0  0
 29 24  1  0  0  0  0
 30 23  1  0  0  0  0
 31 22  1  0  0  0  0
  9  2  1  0  0  0  0
 19 18  1  0  0  0  0
 26 11  2  0  0  0  0
M  END
> <Molecule Name>
DNDI1459257

> <CDD Number>
CDD-1535600

> <IC50_uM>
0.087 (n=1)

$$$$

SketchEl molfile

 29 32  0  0  0  0  0  0  0  0999 V2000
    7.8546   -8.7089    0.0000 N   0  0  0  0  0  0  0  0  0  0  0  0
    8.5672   -5.8251    0.0000 C   0  0  0  0  0  0  0  0  0  0  0  0
    7.8588   -9.5340    0.0000 C   0  0  0  0  0  0  0  0  0  0  0  0
    7.8546   -6.2377    0.0000 N   0  0  0  0  0  0  0  0  0  0  0  0
    8.5756   -9.9424    0.0000 C   0  0  0  0  0  0  0  0  0  0  0  0
    7.1462   -9.9507    0.0000 C   0  0  0  0  0  0  0  0  0  0  0  0
    8.5672   -8.2963    0.0000 C   0  0  0  0  0  0  0  0  0  0  0  0
    7.1378   -8.3047    0.0000 C   0  0  0  0  0  0  0  0  0  0  0  0
    9.9966   -9.9299    0.0000 N   0  0  0  0  0  0  0  0  0  0  0  0
    9.2882  -11.1759    0.0000 N   0  0  0  0  0  0  0  0  0  0  0  0
    8.5672   -5.0000    0.0000 O   0  0  0  0  0  0  0  0  0  0  0  0
    9.2840   -6.2377    0.0000 C   0  0  0  0  0  0  0  0  0  0  0  0
   10.0049  -10.7592    0.0000 C   0  0  0  0  0  0  0  0  0  0  0  0
    7.8546   -7.0628    0.0000 C   0  0  0  0  0  0  0  0  0  0  0  0
    7.1378   -7.4754    0.0000 C   0  0  0  0  0  0  0  0  0  0  0  0
    8.5672   -7.4754    0.0000 C   0  0  0  0  0  0  0  0  0  0  0  0
    6.4294   -9.5382    0.0000 C   0  0  0  0  0  0  0  0  0  0  0  0
    7.1462  -10.7800    0.0000 C   0  0  0  0  0  0  0  0  0  0  0  0
    5.7168  -10.7800    0.0000 C   0  0  0  0  0  0  0  0  0  0  0  0
    8.5756  -10.7675    0.0000 C   0  0  0  0  0  0  0  0  0  0  0  0
    9.2798   -9.5257    0.0000 C   0  0  0  0  0  0  0  0  0  0  0  0
    5.7168   -9.9549    0.0000 C   0  0  0  0  0  0  0  0  0  0  0  0
    6.4294  -11.1926    0.0000 C   0  0  0  0  0  0  0  0  0  0  0  0
    5.0000  -11.1926    0.0000 Cl  0  0  0  0  0  0  0  0  0  0  0  0
    9.2798   -7.0628    0.0000 C   0  0  0  0  0  0  0  0  0  0  0  0
    9.9924   -5.8251    0.0000 C   0  0  0  0  0  0  0  0  0  0  0  0
   10.7050   -6.2335    0.0000 C   0  0  0  0  0  0  0  0  0  0  0  0
    9.9924   -7.4754    0.0000 C   0  0  0  0  0  0  0  0  0  0  0  0
   10.7092   -7.0628    0.0000 C   0  0  0  0  0  0  0  0  0  0  0  0
  2  4  1  0  0  0  0
  3  1  1  0  0  0  0
  4 14  1  0  0  0  0
  5  3  1  0  0  0  0
  6  3  1  0  0  0  0
  7  1  1  0  0  0  0
  8  1  1  0  0  0  0
  9 21  2  0  0  0  0
 10 20  1  0  0  0  0
 11  2  2  0  0  0  0
 12  2  1  0  0  0  0
 13  9  1  0  0  0  0
 14 15  1  0  0  0  0
 15  8  1  0  0  0  0
 16  7  1  0  0  0  0
 17  6  2  0  0  0  0
 18  6  1  0  0  0  0
 19 22  2  0  0  0  0
 20  5  2  0  0  0  0
 21  5  1  0  0  0  0
 22 17  1  0  0  0  0
 23 18  2  0  0  0  0
 24 19  1  0  0  0  0
 25 12  2  0  0  0  0
 26 12  1  0  0  0  0
 27 26  2  0  0  0  0
 28 25  1  0  0  0  0
 29 27  1  0  0  0  0
 14 16  1  0  0  0  0
 23 19  1  0  0  0  0
 13 10  2  0  0  0  0
 29 28  2  0  0  0  0
M  END
> <Molecule Name>
DNDI1459258

> <CDD Number>
CDD-1535601

> <IC50_uM>
0.075 (n=1)

$$$$

SketchEl molfile

 33 36  0  0  0  0  0  0  0  0999 V2000
    9.9992   -6.2373    0.0000 C   0  0  0  0  0  0  0  0  0  0  0  0
    9.2868   -9.1202    0.0000 N   0  0  0  0  0  0  0  0  0  0  0  0
    9.2910   -9.9450    0.0000 C   0  0  0  0  0  0  0  0  0  0  0  0
   10.7158   -6.6497    0.0000 N   0  0  0  0  0  0  0  0  0  0  0  0
    9.2868   -6.6497    0.0000 N   0  0  0  0  0  0  0  0  0  0  0  0
   10.0075  -10.3533    0.0000 C   0  0  0  0  0  0  0  0  0  0  0  0
    8.5786  -10.3616    0.0000 C   0  0  0  0  0  0  0  0  0  0  0  0
    8.5703   -8.7161    0.0000 C   0  0  0  0  0  0  0  0  0  0  0  0
    9.9992   -8.7077    0.0000 C   0  0  0  0  0  0  0  0  0  0  0  0
    9.9992   -5.4124    0.0000 O   0  0  0  0  0  0  0  0  0  0  0  0
   10.7199  -11.5864    0.0000 N   0  0  0  0  0  0  0  0  0  0  0  0
    8.5703   -7.8870    0.0000 C   0  0  0  0  0  0  0  0  0  0  0  0
    9.9992   -7.8870    0.0000 C   0  0  0  0  0  0  0  0  0  0  0  0
    8.5786  -11.1907    0.0000 C   0  0  0  0  0  0  0  0  0  0  0  0
    7.8620   -9.9492    0.0000 C   0  0  0  0  0  0  0  0  0  0  0  0
    9.2868   -7.4746    0.0000 C   0  0  0  0  0  0  0  0  0  0  0  0
    6.4331  -11.6031    0.0000 O   0  0  0  0  0  0  0  0  0  0  0  0
    7.1497  -11.1907    0.0000 C   0  0  0  0  0  0  0  0  0  0  0  0
   11.4282   -6.2373    0.0000 C   0  0  0  0  0  0  0  0  0  0  0  0
    7.1497  -10.3658    0.0000 C   0  0  0  0  0  0  0  0  0  0  0  0
    7.8620  -11.6031    0.0000 C   0  0  0  0  0  0  0  0  0  0  0  0
   10.0075  -11.1782    0.0000 C   0  0  0  0  0  0  0  0  0  0  0  0
    5.7166  -11.1907    0.0000 C   0  0  0  0  0  0  0  0  0  0  0  0
   10.7116   -9.9367    0.0000 C   0  0  0  0  0  0  0  0  0  0  0  0
   11.4365  -11.1698    0.0000 C   0  0  0  0  0  0  0  0  0  0  0  0
   12.1405   -6.6497    0.0000 C   0  0  0  0  0  0  0  0  0  0  0  0
   11.4240   -5.4166    0.0000 C   0  0  0  0  0  0  0  0  0  0  0  0
   11.4282  -10.3408    0.0000 C   0  0  0  0  0  0  0  0  0  0  0  0
    5.7124  -10.3658    0.0000 C   0  0  0  0  0  0  0  0  0  0  0  0
    5.0000  -11.6031    0.0000 C   0  0  0  0  0  0  0  0  0  0  0  0
   12.1364   -5.0000    0.0000 C   0  0  0  0  0  0  0  0  0  0  0  0
   12.8571   -6.2373    0.0000 C   0  0  0  0  0  0  0  0  0  0  0  0
   12.8571   -5.4124    0.0000 C   0  0  0  0  0  0  0  0  0  0  0  0
  2  8  1  0  0  0  0
  3  2  1  0  0  0  0
  4  1  1  0  0  0  0
  5  1  1  0  0  0  0
  6  3  1  0  0  0  0
  7  3  1  0  0  0  0
  8 12  1  0  0  0  0
  9 13  1  0  0  0  0
 10  1  2  0  0  0  0
 11 22  1  0  0  0  0
 12 16  1  0  0  0  0
 13 16  1  0  0  0  0
 14  7  1  0  0  0  0
 15  7  2  0  0  0  0
 16  5  1  0  0  0  0
 17 18  1  0  0  0  0
 18 20  2  0  0  0  0
 19  4  1  0  0  0  0
 20 15  1  0  0  0  0
 21 14  2  0  0  0  0
 22  6  2  0  0  0  0
 23 17  1  0  0  0  0
 24  6  1  0  0  0  0
 25 28  1  0  0  0  0
 26 19  2  0  0  0  0
 27 19  1  0  0  0  0
 28 24  2  0  0  0  0
 29 23  1  0  0  0  0
 30 23  1  0  0  0  0
 31 27  2  0  0  0  0
 32 26  1  0  0  0  0
 33 31  1  0  0  0  0
  9  2  1  0  0  0  0
 33 32  2  0  0  0  0
 21 18  1  0  0  0  0
 25 11  2  0  0  0  0
M  END
> <Molecule Name>
DNDI1459259

> <CDD Number>
CDD-1535602

> <IC50_uM>
0.057 (n=1)

$$$$

SketchEl molfile

 25 27  0  0  0  0  0  0  0  0999 V2000
    8.5682   -5.8253    0.0000 S   0  0  0  0  0  0  0  0  0  0  0  0
    7.8554   -8.7099    0.0000 N   0  0  0  0  0  0  0  0  0  0  0  0
    7.8596   -9.5353    0.0000 C   0  0  0  0  0  0  0  0  0  0  0  0
    8.5765   -9.9438    0.0000 C   0  0  0  0  0  0  0  0  0  0  0  0
    7.8554   -6.2380    0.0000 N   0  0  0  0  0  0  0  0  0  0  0  0
    8.5682   -5.0000    0.0000 O   0  0  0  0  0  0  0  0  0  0  0  0
    8.5640   -6.6465    0.0000 O   0  0  0  0  0  0  0  0  0  0  0  0
    7.1468   -9.9521    0.0000 C   0  0  0  0  0  0  0  0  0  0  0  0
    8.5682   -8.2972    0.0000 C   0  0  0  0  0  0  0  0  0  0  0  0
    7.1384   -8.3056    0.0000 C   0  0  0  0  0  0  0  0  0  0  0  0
    9.9980   -9.9313    0.0000 N   0  0  0  0  0  0  0  0  0  0  0  0
    9.2893  -11.1776    0.0000 N   0  0  0  0  0  0  0  0  0  0  0  0
   10.0063  -10.7608    0.0000 C   0  0  0  0  0  0  0  0  0  0  0  0
    7.1384   -7.4760    0.0000 C   0  0  0  0  0  0  0  0  0  0  0  0
    8.5682   -7.4760    0.0000 C   0  0  0  0  0  0  0  0  0  0  0  0
    7.8554   -7.0634    0.0000 C   0  0  0  0  0  0  0  0  0  0  0  0
    6.4298   -9.5394    0.0000 C   0  0  0  0  0  0  0  0  0  0  0  0
    7.1468  -10.7816    0.0000 C   0  0  0  0  0  0  0  0  0  0  0  0
    9.3894   -5.8212    0.0000 C   0  0  0  0  0  0  0  0  0  0  0  0
    5.7170  -10.7816    0.0000 C   0  0  0  0  0  0  0  0  0  0  0  0
    9.2810   -9.5269    0.0000 C   0  0  0  0  0  0  0  0  0  0  0  0
    8.5765  -10.7691    0.0000 C   0  0  0  0  0  0  0  0  0  0  0  0
    6.4298  -11.1943    0.0000 C   0  0  0  0  0  0  0  0  0  0  0  0
    5.7170   -9.9563    0.0000 C   0  0  0  0  0  0  0  0  0  0  0  0
    5.0000  -11.1943    0.0000 Cl  0  0  0  0  0  0  0  0  0  0  0  0
  2 10  1  0  0  0  0
  3  2  1  0  0  0  0
  4  3  1  0  0  0  0
  5  1  1  0  0  0  0
  6  1  2  0  0  0  0
  7  1  2  0  0  0  0
  8  3  1  0  0  0  0
  9 15  1  0  0  0  0
 10 14  1  0  0  0  0
 11 21  2  0  0  0  0
 12 22  1  0  0  0  0
 13 12  2  0  0  0  0
 14 16  1  0  0  0  0
 15 16  1  0  0  0  0
 16  5  1  0  0  0  0
 17  8  2  0  0  0  0
 18  8  1  0  0  0  0
 19  1  1  0  0  0  0
 20 24  2  0  0  0  0
 21  4  1  0  0  0  0
 22  4  2  0  0  0  0
 23 18  2  0  0  0  0
 24 17  1  0  0  0  0
 25 20  1  0  0  0  0
  9  2  1  0  0  0  0
 23 20  1  0  0  0  0
 11 13  1  0  0  0  0
M  END
> <Molecule Name>
DNDI1459260

> <CDD Number>
CDD-1535603

> <IC50_uM>
0.63 (n=1)

$$$$

SketchEl molfile

 25 27  0  0  0  0  0  0  0  0999 V2000
    7.8702   -5.8290    0.0000 S   0  0  0  0  0  0  0  0  0  0  0  0
    7.8661   -6.6538    0.0000 N   0  0  0  0  0  0  0  0  0  0  0  0
    7.8577   -9.1241    0.0000 C   0  0  0  0  0  0  0  0  0  0  0  0
    7.0454   -5.8248    0.0000 O   0  0  0  0  0  0  0  0  0  0  0  0
    8.6951   -5.8248    0.0000 O   0  0  0  0  0  0  0  0  0  0  0  0
    8.5742   -9.5324    0.0000 C   0  0  0  0  0  0  0  0  0  0  0  0
    7.1454   -9.5407    0.0000 C   0  0  0  0  0  0  0  0  0  0  0  0
    7.8577   -8.2993    0.0000 C   0  0  0  0  0  0  0  0  0  0  0  0
    7.1495   -7.0620    0.0000 C   0  0  0  0  0  0  0  0  0  0  0  0
    8.5784   -7.0704    0.0000 C   0  0  0  0  0  0  0  0  0  0  0  0
    9.2866  -10.7654    0.0000 N   0  0  0  0  0  0  0  0  0  0  0  0
    7.1454   -7.8910    0.0000 C   0  0  0  0  0  0  0  0  0  0  0  0
    8.5742   -7.8910    0.0000 C   0  0  0  0  0  0  0  0  0  0  0  0
    7.1454  -10.3697    0.0000 C   0  0  0  0  0  0  0  0  0  0  0  0
    6.4289   -9.1283    0.0000 C   0  0  0  0  0  0  0  0  0  0  0  0
    7.8661   -5.0000    0.0000 C   0  0  0  0  0  0  0  0  0  0  0  0
    7.8536   -9.9489    0.0000 O   0  0  0  0  0  0  0  0  0  0  0  0
    5.7165  -10.3697    0.0000 C   0  0  0  0  0  0  0  0  0  0  0  0
    6.4289  -10.7821    0.0000 C   0  0  0  0  0  0  0  0  0  0  0  0
    5.7165   -9.5449    0.0000 C   0  0  0  0  0  0  0  0  0  0  0  0
    8.5742  -10.3572    0.0000 C   0  0  0  0  0  0  0  0  0  0  0  0
    5.0000  -10.7821    0.0000 Cl  0  0  0  0  0  0  0  0  0  0  0  0
    9.2783   -9.1158    0.0000 C   0  0  0  0  0  0  0  0  0  0  0  0
   10.0031  -10.3489    0.0000 C   0  0  0  0  0  0  0  0  0  0  0  0
    9.9948   -9.5199    0.0000 C   0  0  0  0  0  0  0  0  0  0  0  0
  2  1  1  0  0  0  0
  3  8  1  0  0  0  0
  4  1  2  0  0  0  0
  5  1  2  0  0  0  0
  6  3  1  0  0  0  0
  7  3  1  0  0  0  0
  8 12  1  0  0  0  0
  9  2  1  0  0  0  0
 10  2  1  0  0  0  0
 11 21  1  0  0  0  0
 12  9  1  0  0  0  0
 13 10  1  0  0  0  0
 14  7  1  0  0  0  0
 15  7  2  0  0  0  0
 16  1  1  0  0  0  0
 17  3  1  0  0  0  0
 18 20  2  0  0  0  0
 19 14  2  0  0  0  0
 20 15  1  0  0  0  0
 21  6  2  0  0  0  0
 22 18  1  0  0  0  0
 23  6  1  0  0  0  0
 24 11  2  0  0  0  0
 25 23  2  0  0  0  0
 13  8  1  0  0  0  0
 25 24  1  0  0  0  0
 19 18  1  0  0  0  0
M  END
> <Molecule Name>
DNDI1459261

> <CDD Number>
CDD-1535604

> <IC50_uM>
0.2 (n=1)

$$$$

SketchEl molfile

 27 29  0  0  0  0  0  0  0  0999 V2000
    9.2871   -8.2996    0.0000 C   0  0  0  0  0  0  0  0  0  0  0  0
    9.2829   -7.4747    0.0000 C   0  0  0  0  0  0  0  0  0  0  0  0
   10.7077   -5.8249    0.0000 C   0  0  0  0  0  0  0  0  0  0  0  0
    9.9995   -7.0623    0.0000 C   0  0  0  0  0  0  0  0  0  0  0  0
    9.9953   -6.2415    0.0000 C   0  0  0  0  0  0  0  0  0  0  0  0
   10.0037   -8.7079    0.0000 C   0  0  0  0  0  0  0  0  0  0  0  0
    8.5746   -8.7163    0.0000 C   0  0  0  0  0  0  0  0  0  0  0  0
   10.7036   -5.0000    0.0000 O   0  0  0  0  0  0  0  0  0  0  0  0
   10.7161   -9.9411    0.0000 N   0  0  0  0  0  0  0  0  0  0  0  0
    8.5746   -9.5453    0.0000 C   0  0  0  0  0  0  0  0  0  0  0  0
    7.8580   -8.3038    0.0000 C   0  0  0  0  0  0  0  0  0  0  0  0
    6.4290   -9.9578    0.0000 O   0  0  0  0  0  0  0  0  0  0  0  0
   11.4243   -6.2373    0.0000 N   0  0  0  0  0  0  0  0  0  0  0  0
    9.2829   -9.1246    0.0000 O   0  0  0  0  0  0  0  0  0  0  0  0
    7.1456   -9.5453    0.0000 C   0  0  0  0  0  0  0  0  0  0  0  0
    7.1456   -8.7204    0.0000 C   0  0  0  0  0  0  0  0  0  0  0  0
    7.8580   -9.9578    0.0000 C   0  0  0  0  0  0  0  0  0  0  0  0
   10.0037   -9.5328    0.0000 C   0  0  0  0  0  0  0  0  0  0  0  0
    8.5705   -7.0706    0.0000 C   0  0  0  0  0  0  0  0  0  0  0  0
    9.2787   -5.8291    0.0000 C   0  0  0  0  0  0  0  0  0  0  0  0
    8.5621   -6.2498    0.0000 C   0  0  0  0  0  0  0  0  0  0  0  0
   10.7077   -8.2913    0.0000 C   0  0  0  0  0  0  0  0  0  0  0  0
    5.7166   -9.5453    0.0000 C   0  0  0  0  0  0  0  0  0  0  0  0
   11.4327   -9.5245    0.0000 C   0  0  0  0  0  0  0  0  0  0  0  0
   11.4243   -8.6954    0.0000 C   0  0  0  0  0  0  0  0  0  0  0  0
    5.0000   -9.9578    0.0000 C   0  0  0  0  0  0  0  0  0  0  0  0
    5.7166   -8.7204    0.0000 C   0  0  0  0  0  0  0  0  0  0  0  0
  2  1  1  0  0  0  0
  3  5  1  0  0  0  0
  4  2  2  0  0  0  0
  5  4  1  0  0  0  0
  6  1  1  0  0  0  0
  7  1  1  0  0  0  0
  8  3  2  0  0  0  0
  9 18  1  0  0  0  0
 10  7  1  0  0  0  0
 11  7  2  0  0  0  0
 12 15  1  0  0  0  0
 13  3  1  0  0  0  0
 14  1  1  0  0  0  0
 15 16  2  0  0  0  0
 16 11  1  0  0  0  0
 17 10  2  0  0  0  0
 18  6  2  0  0  0  0
 19  2  1  0  0  0  0
 20 21  1  0  0  0  0
 21 19  2  0  0  0  0
 22  6  1  0  0  0  0
 23 12  1  0  0  0  0
 24  9  2  0  0  0  0
 25 22  2  0  0  0  0
 26 23  1  0  0  0  0
 27 23  1  0  0  0  0
 25 24  1  0  0  0  0
 17 15  1  0  0  0  0
 20  5  2  0  0  0  0
M  END
> <Molecule Name>
DNDI1460900

> <CDD Number>
CDD-1535605

> <IC50_uM>
0.092 (n=1)

$$$$

SketchEl molfile

 26 29  0  0  0  0  0  0  0  0999 V2000
    7.1461   -9.8382    0.0000 C   0  0  0  0  0  0  0  0  0  0  0  0
    7.8546   -6.1251    0.0000 C   0  0  0  0  0  0  0  0  0  0  0  0
    7.8546   -6.9503    0.0000 N   0  0  0  0  0  0  0  0  0  0  0  0
    7.8546   -8.5963    0.0000 N   0  0  0  0  0  0  0  0  0  0  0  0
    7.8587   -9.4214    0.0000 C   0  0  0  0  0  0  0  0  0  0  0  0
    8.5672   -5.7126    0.0000 C   0  0  0  0  0  0  0  0  0  0  0  0
    6.4294   -9.4256    0.0000 C   0  0  0  0  0  0  0  0  0  0  0  0
    9.3881   -5.7168    0.0000 C   0  0  0  0  0  0  0  0  0  0  0  0
    8.9756   -5.0000    0.0000 C   0  0  0  0  0  0  0  0  0  0  0  0
    7.1461  -10.6674    0.0000 C   0  0  0  0  0  0  0  0  0  0  0  0
    5.7168   -9.8382    0.0000 C   0  0  0  0  0  0  0  0  0  0  0  0
    8.5755   -9.8298    0.0000 C   0  0  0  0  0  0  0  0  0  0  0  0
    8.5672   -7.3628    0.0000 C   0  0  0  0  0  0  0  0  0  0  0  0
    7.1378   -7.3628    0.0000 C   0  0  0  0  0  0  0  0  0  0  0  0
    8.5672   -8.1838    0.0000 C   0  0  0  0  0  0  0  0  0  0  0  0
    7.1378   -8.1921    0.0000 C   0  0  0  0  0  0  0  0  0  0  0  0
    7.1378   -5.7126    0.0000 O   0  0  0  0  0  0  0  0  0  0  0  0
    9.2881  -11.0633    0.0000 N   0  0  0  0  0  0  0  0  0  0  0  0
    5.7168  -10.6674    0.0000 C   0  0  0  0  0  0  0  0  0  0  0  0
    6.4252   -8.6005    0.0000 F   0  0  0  0  0  0  0  0  0  0  0  0
    6.4294  -11.0800    0.0000 C   0  0  0  0  0  0  0  0  0  0  0  0
    5.0000  -11.0800    0.0000 Cl  0  0  0  0  0  0  0  0  0  0  0  0
    8.5755  -10.6549    0.0000 C   0  0  0  0  0  0  0  0  0  0  0  0
    9.2798   -9.4131    0.0000 C   0  0  0  0  0  0  0  0  0  0  0  0
   10.0049  -10.6466    0.0000 C   0  0  0  0  0  0  0  0  0  0  0  0
    9.9965   -9.8173    0.0000 C   0  0  0  0  0  0  0  0  0  0  0  0
  2  3  1  0  0  0  0
  3 14  1  0  0  0  0
  4  5  1  0  0  0  0
  5  1  1  0  0  0  0
  6  2  1  0  0  0  0
  7  1  2  0  0  0  0
  8  6  1  0  0  0  0
  9  6  1  0  0  0  0
 10  1  1  0  0  0  0
 11  7  1  0  0  0  0
 12  5  1  0  0  0  0
 13 15  1  0  0  0  0
 14 16  1  0  0  0  0
 15  4  1  0  0  0  0
 16  4  1  0  0  0  0
 17  2  2  0  0  0  0
 18 23  1  0  0  0  0
 19 11  2  0  0  0  0
 20  7  1  0  0  0  0
 21 10  2  0  0  0  0
 22 19  1  0  0  0  0
 23 12  2  0  0  0  0
 24 12  1  0  0  0  0
 25 18  2  0  0  0  0
 26 24  2  0  0  0  0
 21 19  1  0  0  0  0
  3 13  1  0  0  0  0
 26 25  1  0  0  0  0
  8  9  1  0  0  0  0
M  END
> <Molecule Name>
DNDI1460901

> <CDD Number>
CDD-1535606

> <IC50_uM>
0.026 (n=1)

$$$$

SketchEl molfile

 27 30  0  0  0  0  0  0  0  0999 V2000
    7.1459   -9.9501    0.0000 C   0  0  0  0  0  0  0  0  0  0  0  0
    8.5668   -5.8250    0.0000 C   0  0  0  0  0  0  0  0  0  0  0  0
    7.8584   -9.5334    0.0000 C   0  0  0  0  0  0  0  0  0  0  0  0
    7.8542   -8.7084    0.0000 N   0  0  0  0  0  0  0  0  0  0  0  0
    9.2835   -6.2375    0.0000 C   0  0  0  0  0  0  0  0  0  0  0  0
    6.4292   -9.5376    0.0000 C   0  0  0  0  0  0  0  0  0  0  0  0
    8.5751   -9.9418    0.0000 C   0  0  0  0  0  0  0  0  0  0  0  0
    9.6960   -6.9500    0.0000 C   0  0  0  0  0  0  0  0  0  0  0  0
   10.1085   -6.2375    0.0000 C   0  0  0  0  0  0  0  0  0  0  0  0
    7.8542   -6.2375    0.0000 N   0  0  0  0  0  0  0  0  0  0  0  0
    7.1459  -10.7793    0.0000 C   0  0  0  0  0  0  0  0  0  0  0  0
    5.7167   -9.9501    0.0000 C   0  0  0  0  0  0  0  0  0  0  0  0
    7.1376   -8.3042    0.0000 C   0  0  0  0  0  0  0  0  0  0  0  0
    8.5668   -8.2959    0.0000 C   0  0  0  0  0  0  0  0  0  0  0  0
    9.9960   -9.9293    0.0000 N   0  0  0  0  0  0  0  0  0  0  0  0
    9.2876  -11.1751    0.0000 N   0  0  0  0  0  0  0  0  0  0  0  0
    8.5668   -5.0000    0.0000 O   0  0  0  0  0  0  0  0  0  0  0  0
   10.0043  -10.7585    0.0000 C   0  0  0  0  0  0  0  0  0  0  0  0
    7.8542   -7.0625    0.0000 C   0  0  0  0  0  0  0  0  0  0  0  0
    7.1376   -7.4750    0.0000 C   0  0  0  0  0  0  0  0  0  0  0  0
    8.5668   -7.4750    0.0000 C   0  0  0  0  0  0  0  0  0  0  0  0
    5.7167  -10.7793    0.0000 C   0  0  0  0  0  0  0  0  0  0  0  0
    6.4250   -8.7126    0.0000 F   0  0  0  0  0  0  0  0  0  0  0  0
    6.4292  -11.1918    0.0000 C   0  0  0  0  0  0  0  0  0  0  0  0
    8.5751  -10.7668    0.0000 C   0  0  0  0  0  0  0  0  0  0  0  0
    9.2793   -9.5251    0.0000 C   0  0  0  0  0  0  0  0  0  0  0  0
    5.0000  -11.1918    0.0000 Cl  0  0  0  0  0  0  0  0  0  0  0  0
  2 10  1  0  0  0  0
  3  1  1  0  0  0  0
  4  3  1  0  0  0  0
  5  2  1  0  0  0  0
  6  1  2  0  0  0  0
  7  3  1  0  0  0  0
  8  5  1  0  0  0  0
  9  5  1  0  0  0  0
 10 19  1  0  0  0  0
 11  1  1  0  0  0  0
 12  6  1  0  0  0  0
 13  4  1  0  0  0  0
 14  4  1  0  0  0  0
 15 26  2  0  0  0  0
 16 25  1  0  0  0  0
 17  2  2  0  0  0  0
 18 16  2  0  0  0  0
 19 20  1  0  0  0  0
 20 13  1  0  0  0  0
 21 14  1  0  0  0  0
 22 12  2  0  0  0  0
 23  6  1  0  0  0  0
 24 11  2  0  0  0  0
 25  7  2  0  0  0  0
 26  7  1  0  0  0  0
 27 22  1  0  0  0  0
 24 22  1  0  0  0  0
 19 21  1  0  0  0  0
 15 18  1  0  0  0  0
  8  9  1  0  0  0  0
M  END
> <Molecule Name>
DNDI1460902

> <CDD Number>
CDD-1535607

> <IC50_uM>
0.15 (n=1)

$$$$

SketchEl molfile

 30 33  0  0  0  0  0  0  0  0999 V2000
    7.1462   -9.9507    0.0000 C   0  0  0  0  0  0  0  0  0  0  0  0
    7.8588   -9.5340    0.0000 C   0  0  0  0  0  0  0  0  0  0  0  0
    7.8546   -8.7089    0.0000 N   0  0  0  0  0  0  0  0  0  0  0  0
    8.5672   -5.8251    0.0000 C   0  0  0  0  0  0  0  0  0  0  0  0
    6.4294   -9.5382    0.0000 C   0  0  0  0  0  0  0  0  0  0  0  0
    8.5755   -9.9424    0.0000 C   0  0  0  0  0  0  0  0  0  0  0  0
    7.8546   -6.2377    0.0000 N   0  0  0  0  0  0  0  0  0  0  0  0
    7.1462  -10.7800    0.0000 C   0  0  0  0  0  0  0  0  0  0  0  0
    5.7168   -9.9549    0.0000 C   0  0  0  0  0  0  0  0  0  0  0  0
    8.5672   -8.2963    0.0000 C   0  0  0  0  0  0  0  0  0  0  0  0
    7.1378   -8.3047    0.0000 C   0  0  0  0  0  0  0  0  0  0  0  0
    9.2881  -11.1759    0.0000 N   0  0  0  0  0  0  0  0  0  0  0  0
    9.9966   -9.9299    0.0000 N   0  0  0  0  0  0  0  0  0  0  0  0
    8.5672   -5.0000    0.0000 O   0  0  0  0  0  0  0  0  0  0  0  0
    9.2840   -6.2377    0.0000 C   0  0  0  0  0  0  0  0  0  0  0  0
   10.0049  -10.7592    0.0000 C   0  0  0  0  0  0  0  0  0  0  0  0
    7.8546   -7.0628    0.0000 C   0  0  0  0  0  0  0  0  0  0  0  0
    7.1378   -7.4754    0.0000 C   0  0  0  0  0  0  0  0  0  0  0  0
    8.5672   -7.4754    0.0000 C   0  0  0  0  0  0  0  0  0  0  0  0
    5.7168  -10.7800    0.0000 C   0  0  0  0  0  0  0  0  0  0  0  0
    6.4252   -8.7131    0.0000 F   0  0  0  0  0  0  0  0  0  0  0  0
    6.4294  -11.1926    0.0000 C   0  0  0  0  0  0  0  0  0  0  0  0
    8.5755  -10.7675    0.0000 C   0  0  0  0  0  0  0  0  0  0  0  0
    9.2798   -9.5257    0.0000 C   0  0  0  0  0  0  0  0  0  0  0  0
    5.0000  -11.1926    0.0000 Cl  0  0  0  0  0  0  0  0  0  0  0  0
    9.2798   -7.0628    0.0000 C   0  0  0  0  0  0  0  0  0  0  0  0
    9.9924   -5.8251    0.0000 C   0  0  0  0  0  0  0  0  0  0  0  0
   10.7050   -6.2335    0.0000 C   0  0  0  0  0  0  0  0  0  0  0  0
    9.9924   -7.4754    0.0000 C   0  0  0  0  0  0  0  0  0  0  0  0
   10.7092   -7.0628    0.0000 C   0  0  0  0  0  0  0  0  0  0  0  0
  2  1  1  0  0  0  0
  3  2  1  0  0  0  0
  4  7  1  0  0  0  0
  5  1  2  0  0  0  0
  6  2  1  0  0  0  0
  7 17  1  0  0  0  0
  8  1  1  0  0  0  0
  9  5  1  0  0  0  0
 10  3  1  0  0  0  0
 11  3  1  0  0  0  0
 12 23  1  0  0  0  0
 13 24  2  0  0  0  0
 14  4  2  0  0  0  0
 15  4  1  0  0  0  0
 16 13  1  0  0  0  0
 17 18  1  0  0  0  0
 18 11  1  0  0  0  0
 19 10  1  0  0  0  0
 20  9  2  0  0  0  0
 21  5  1  0  0  0  0
 22  8  2  0  0  0  0
 23  6  2  0  0  0  0
 24  6  1  0  0  0  0
 25 20  1  0  0  0  0
 26 15  2  0  0  0  0
 27 15  1  0  0  0  0
 28 27  2  0  0  0  0
 29 26  1  0  0  0  0
 30 28  1  0  0  0  0
 22 20  1  0  0  0  0
 17 19  1  0  0  0  0
 16 12  2  0  0  0  0
 30 29  2  0  0  0  0
M  END
> <Molecule Name>
DNDI1460903

> <CDD Number>
CDD-1535608

> <IC50_uM>
0.022 (n=1)

$$$$

SketchEl molfile

 29 31  0  0  0  0  0  0  0  0999 V2000
    8.5689   -5.8255    0.0000 C   0  0  0  0  0  0  0  0  0  0  0  0
    7.1472   -9.9531    0.0000 C   0  0  0  0  0  0  0  0  0  0  0  0
    7.8601   -9.5361    0.0000 C   0  0  0  0  0  0  0  0  0  0  0  0
    7.8559   -8.7106    0.0000 N   0  0  0  0  0  0  0  0  0  0  0  0
    6.4301   -9.5403    0.0000 C   0  0  0  0  0  0  0  0  0  0  0  0
    7.8559   -6.2383    0.0000 N   0  0  0  0  0  0  0  0  0  0  0  0
    8.5772   -9.9447    0.0000 C   0  0  0  0  0  0  0  0  0  0  0  0
    7.1472  -10.7827    0.0000 C   0  0  0  0  0  0  0  0  0  0  0  0
    5.7171   -9.9572    0.0000 C   0  0  0  0  0  0  0  0  0  0  0  0
    9.2860   -6.2383    0.0000 N   0  0  0  0  0  0  0  0  0  0  0  0
    8.5689   -5.0000    0.0000 O   0  0  0  0  0  0  0  0  0  0  0  0
    8.5689   -8.2979    0.0000 C   0  0  0  0  0  0  0  0  0  0  0  0
    7.1388   -8.3062    0.0000 C   0  0  0  0  0  0  0  0  0  0  0  0
    9.2902  -11.1788    0.0000 N   0  0  0  0  0  0  0  0  0  0  0  0
    9.9989   -9.9322    0.0000 N   0  0  0  0  0  0  0  0  0  0  0  0
   10.0073  -10.7619    0.0000 C   0  0  0  0  0  0  0  0  0  0  0  0
    7.8559   -7.0638    0.0000 C   0  0  0  0  0  0  0  0  0  0  0  0
    7.1388   -7.4765    0.0000 C   0  0  0  0  0  0  0  0  0  0  0  0
    8.5689   -7.4765    0.0000 C   0  0  0  0  0  0  0  0  0  0  0  0
    5.7171  -10.7827    0.0000 C   0  0  0  0  0  0  0  0  0  0  0  0
    6.4259   -8.7148    0.0000 F   0  0  0  0  0  0  0  0  0  0  0  0
    6.4301  -11.1955    0.0000 C   0  0  0  0  0  0  0  0  0  0  0  0
    8.5772  -10.7702    0.0000 C   0  0  0  0  0  0  0  0  0  0  0  0
    9.2818   -9.5278    0.0000 C   0  0  0  0  0  0  0  0  0  0  0  0
    5.0000  -11.1955    0.0000 Cl  0  0  0  0  0  0  0  0  0  0  0  0
    9.9948   -5.8255    0.0000 C   0  0  0  0  0  0  0  0  0  0  0  0
    9.2860   -7.0638    0.0000 C   0  0  0  0  0  0  0  0  0  0  0  0
    9.9989   -7.4724    0.0000 C   0  0  0  0  0  0  0  0  0  0  0  0
   10.7035   -6.2341    0.0000 C   0  0  0  0  0  0  0  0  0  0  0  0
  2  3  1  0  0  0  0
  3  4  1  0  0  0  0
  4 13  1  0  0  0  0
  5  2  2  0  0  0  0
  6  1  1  0  0  0  0
  7  3  1  0  0  0  0
  8  2  1  0  0  0  0
  9  5  1  0  0  0  0
 10  1  1  0  0  0  0
 11  1  2  0  0  0  0
 12 19  1  0  0  0  0
 13 18  1  0  0  0  0
 14 23  1  0  0  0  0
 15 24  2  0  0  0  0
 16 14  2  0  0  0  0
 17  6  1  0  0  0  0
 18 17  1  0  0  0  0
 19 17  1  0  0  0  0
 20  9  2  0  0  0  0
 21  5  1  0  0  0  0
 22  8  2  0  0  0  0
 23  7  2  0  0  0  0
 24  7  1  0  0  0  0
 25 20  1  0  0  0  0
 26 10  1  0  0  0  0
 27 10  1  0  0  0  0
 28 27  1  0  0  0  0
 29 26  1  0  0  0  0
 12  4  1  0  0  0  0
 22 20  1  0  0  0  0
 15 16  1  0  0  0  0
M  END
> <Molecule Name>
DNDI1460904

> <CDD Number>
CDD-1535609

> <IC50_uM>
0.05 (n=1)

$$$$

SketchEl molfile

 31 34  0  0  0  0  0  0  0  0999 V2000
    7.1484  -10.3647    0.0000 C   0  0  0  0  0  0  0  0  0  0  0  0
    7.8617   -9.9475    0.0000 C   0  0  0  0  0  0  0  0  0  0  0  0
    8.5709   -6.2348    0.0000 C   0  0  0  0  0  0  0  0  0  0  0  0
    7.8575   -9.1215    0.0000 N   0  0  0  0  0  0  0  0  0  0  0  0
    6.4309   -9.9517    0.0000 C   0  0  0  0  0  0  0  0  0  0  0  0
    8.5792  -10.3563    0.0000 C   0  0  0  0  0  0  0  0  0  0  0  0
    7.1484  -11.1948    0.0000 C   0  0  0  0  0  0  0  0  0  0  0  0
    5.7175  -10.3688    0.0000 C   0  0  0  0  0  0  0  0  0  0  0  0
    9.2884   -6.6478    0.0000 N   0  0  0  0  0  0  0  0  0  0  0  0
    7.8575   -6.6478    0.0000 N   0  0  0  0  0  0  0  0  0  0  0  0
    7.1400   -8.7169    0.0000 C   0  0  0  0  0  0  0  0  0  0  0  0
    8.5709   -8.7085    0.0000 C   0  0  0  0  0  0  0  0  0  0  0  0
    8.5709   -5.4088    0.0000 O   0  0  0  0  0  0  0  0  0  0  0  0
    9.2926  -11.5911    0.0000 N   0  0  0  0  0  0  0  0  0  0  0  0
   10.0017  -10.3438    0.0000 N   0  0  0  0  0  0  0  0  0  0  0  0
   10.0101  -11.1740    0.0000 C   0  0  0  0  0  0  0  0  0  0  0  0
    7.1400   -7.8867    0.0000 C   0  0  0  0  0  0  0  0  0  0  0  0
    8.5709   -7.8867    0.0000 C   0  0  0  0  0  0  0  0  0  0  0  0
    5.7175  -11.1948    0.0000 C   0  0  0  0  0  0  0  0  0  0  0  0
    7.8575   -7.4737    0.0000 C   0  0  0  0  0  0  0  0  0  0  0  0
    6.4267   -9.1257    0.0000 F   0  0  0  0  0  0  0  0  0  0  0  0
    6.4309  -11.6078    0.0000 C   0  0  0  0  0  0  0  0  0  0  0  0
    8.5792  -11.1823    0.0000 C   0  0  0  0  0  0  0  0  0  0  0  0
    9.2842   -9.9392    0.0000 C   0  0  0  0  0  0  0  0  0  0  0  0
    9.9976   -6.2348    0.0000 C   0  0  0  0  0  0  0  0  0  0  0  0
    5.0000  -11.6078    0.0000 Cl  0  0  0  0  0  0  0  0  0  0  0  0
   10.7109   -6.6436    0.0000 C   0  0  0  0  0  0  0  0  0  0  0  0
    9.9892   -5.4172    0.0000 C   0  0  0  0  0  0  0  0  0  0  0  0
   10.6942   -5.0000    0.0000 C   0  0  0  0  0  0  0  0  0  0  0  0
   11.4159   -6.2306    0.0000 C   0  0  0  0  0  0  0  0  0  0  0  0
   11.4159   -5.4088    0.0000 C   0  0  0  0  0  0  0  0  0  0  0  0
  2  1  1  0  0  0  0
  3 10  1  0  0  0  0
  4  2  1  0  0  0  0
  5  1  2  0  0  0  0
  6  2  1  0  0  0  0
  7  1  1  0  0  0  0
  8  5  1  0  0  0  0
  9  3  1  0  0  0  0
 10 20  1  0  0  0  0
 11  4  1  0  0  0  0
 12  4  1  0  0  0  0
 13  3  2  0  0  0  0
 14 23  1  0  0  0  0
 15 24  2  0  0  0  0
 16 15  1  0  0  0  0
 17 11  1  0  0  0  0
 18 12  1  0  0  0  0
 19  8  2  0  0  0  0
 20 18  1  0  0  0  0
 21  5  1  0  0  0  0
 22  7  2  0  0  0  0
 23  6  2  0  0  0  0
 24  6  1  0  0  0  0
 25  9  1  0  0  0  0
 26 19  1  0  0  0  0
 27 25  2  0  0  0  0
 28 25  1  0  0  0  0
 29 28  2  0  0  0  0
 30 27  1  0  0  0  0
 31 29  1  0  0  0  0
 22 19  1  0  0  0  0
 17 20  1  0  0  0  0
 16 14  2  0  0  0  0
 31 30  2  0  0  0  0
M  END
> <Molecule Name>
DNDI1460905

> <CDD Number>
CDD-1535610

> <IC50_uM>
0.03 (n=1)

$$$$

SketchEl molfile

 32 35  0  0  0  0  0  0  0  0999 V2000
    5.7159   -8.7203    0.0000 C   0  0  0  0  0  0  0  0  0  0  0  0
    5.7147   -9.5476    0.0000 C   0  0  0  0  0  0  0  0  0  0  0  0
    6.4295   -9.9605    0.0000 C   0  0  0  0  0  0  0  0  0  0  0  0
    7.1458   -9.5471    0.0000 C   0  0  0  0  0  0  0  0  0  0  0  0
    7.1429   -8.7167    0.0000 C   0  0  0  0  0  0  0  0  0  0  0  0
    6.4277   -8.3077    0.0000 C   0  0  0  0  0  0  0  0  0  0  0  0
    7.8559   -8.3016    0.0000 C   0  0  0  0  0  0  0  0  0  0  0  0
    8.5718   -8.7113    0.0000 C   0  0  0  0  0  0  0  0  0  0  0  0
    7.8527   -7.4767    0.0000 N   0  0  0  0  0  0  0  0  0  0  0  0
    8.5656   -7.0615    0.0000 C   0  0  0  0  0  0  0  0  0  0  0  0
    8.5715   -9.5339    0.0000 C   0  0  0  0  0  0  0  0  0  0  0  0
    9.2866   -9.9436    0.0000 N   0  0  0  0  0  0  0  0  0  0  0  0
   10.0004   -9.5283    0.0000 C   0  0  0  0  0  0  0  0  0  0  0  0
    9.9946   -8.6992    0.0000 C   0  0  0  0  0  0  0  0  0  0  0  0
    9.2790   -8.2933    0.0000 C   0  0  0  0  0  0  0  0  0  0  0  0
    9.2766   -7.4742    0.0000 C   0  0  0  0  0  0  0  0  0  0  0  0
    9.9873   -7.0625    0.0000 C   0  0  0  0  0  0  0  0  0  0  0  0
    9.9884   -6.2373    0.0000 N   0  0  0  0  0  0  0  0  0  0  0  0
    9.2726   -5.8254    0.0000 C   0  0  0  0  0  0  0  0  0  0  0  0
    8.5557   -6.2386    0.0000 C   0  0  0  0  0  0  0  0  0  0  0  0
   10.7028   -5.8249    0.0000 C   0  0  0  0  0  0  0  0  0  0  0  0
   11.4172   -6.2373    0.0000 C   0  0  0  0  0  0  0  0  0  0  0  0
   10.7028   -5.0000    0.0000 O   0  0  0  0  0  0  0  0  0  0  0  0
   11.5078   -7.0566    0.0000 N   0  0  0  0  0  0  0  0  0  0  0  0
   12.3147   -7.2281    0.0000 O   0  0  0  0  0  0  0  0  0  0  0  0
   12.7272   -6.5137    0.0000 C   0  0  0  0  0  0  0  0  0  0  0  0
   12.1751   -5.9008    0.0000 C   0  0  0  0  0  0  0  0  0  0  0  0
   13.5476   -6.4274    0.0000 C   0  0  0  0  0  0  0  0  0  0  0  0
    5.0000   -9.9595    0.0000 C   0  0  0  0  0  0  0  0  0  0  0  0
    4.2860   -9.5465    0.0000 F   0  0  0  0  0  0  0  0  0  0  0  0
    4.9994  -10.7844    0.0000 F   0  0  0  0  0  0  0  0  0  0  0  0
    4.7872   -9.1626    0.0000 F   0  0  0  0  0  0  0  0  0  0  0  0
  2 29  1  0  0  0  0
 29 30  1  0  0  0  0
 29 31  1  0  0  0  0
 29 32  1  0  0  0  0
 10 16  1  0  0  0  0
  3  4  2  0  0  0  0
  7  8  1  0  0  0  0
  7  9  1  0  0  0  0
  4  5  1  0  0  0  0
 10 20  1  0  0  0  0
 16 17  1  0  0  0  0
 17 18  1  0  0  0  0
 18 19  1  0  0  0  0
 19 20  1  0  0  0  0
  9 10  1  0  0  0  0
 18 21  1  0  0  0  0
  2  3  1  0  0  0  0
 21 22  1  0  0  0  0
  8 11  2  0  0  0  0
 21 23  2  0  0  0  0
 22 24  2  0  0  0  0
  5  6  2  0  0  0  0
 11 12  1  0  0  0  0
  6  1  1  0  0  0  0
 12 13  2  0  0  0  0
 24 25  1  0  0  0  0
 25 26  1  0  0  0  0
 26 27  2  0  0  0  0
 27 22  1  0  0  0  0
  1  2  2  0  0  0  0
 26 28  1  0  0  0  0
 13 14  1  0  0  0  0
  5  7  1  0  0  0  0
 14 15  2  0  0  0  0
 15  8  1  0  0  0  0
M  END
> <Molecule Name>
DNDI1460906

> <CDD Number>
CDD-1535611

> <IC50_uM>
0.12 (n=1)

$$$$

SketchEl molfile

 32 35  0  0  0  0  0  0  0  0999 V2000
    5.7159   -8.7203    0.0000 C   0  0  0  0  0  0  0  0  0  0  0  0
    5.7147   -9.5476    0.0000 C   0  0  0  0  0  0  0  0  0  0  0  0
    6.4294   -9.9605    0.0000 C   0  0  0  0  0  0  0  0  0  0  0  0
    7.1458   -9.5471    0.0000 C   0  0  0  0  0  0  0  0  0  0  0  0
    7.1429   -8.7167    0.0000 C   0  0  0  0  0  0  0  0  0  0  0  0
    6.4276   -8.3077    0.0000 C   0  0  0  0  0  0  0  0  0  0  0  0
    7.8558   -8.3016    0.0000 C   0  0  0  0  0  0  0  0  0  0  0  0
    8.5717   -8.7113    0.0000 C   0  0  0  0  0  0  0  0  0  0  0  0
    7.8527   -7.4767    0.0000 N   0  0  0  0  0  0  0  0  0  0  0  0
    8.5655   -7.0615    0.0000 C   0  0  0  0  0  0  0  0  0  0  0  0
    8.5715   -9.5339    0.0000 C   0  0  0  0  0  0  0  0  0  0  0  0
    9.2866   -9.9436    0.0000 N   0  0  0  0  0  0  0  0  0  0  0  0
   10.0004   -9.5283    0.0000 C   0  0  0  0  0  0  0  0  0  0  0  0
    9.9946   -8.6992    0.0000 C   0  0  0  0  0  0  0  0  0  0  0  0
    9.2789   -8.2933    0.0000 C   0  0  0  0  0  0  0  0  0  0  0  0
    9.2765   -7.4742    0.0000 C   0  0  0  0  0  0  0  0  0  0  0  0
    9.9872   -7.0625    0.0000 C   0  0  0  0  0  0  0  0  0  0  0  0
    9.9884   -6.2373    0.0000 N   0  0  0  0  0  0  0  0  0  0  0  0
    9.2726   -5.8254    0.0000 C   0  0  0  0  0  0  0  0  0  0  0  0
    8.5557   -6.2386    0.0000 C   0  0  0  0  0  0  0  0  0  0  0  0
   10.7028   -5.8249    0.0000 C   0  0  0  0  0  0  0  0  0  0  0  0
   11.4172   -6.2373    0.0000 C   0  0  0  0  0  0  0  0  0  0  0  0
   10.7028   -5.0000    0.0000 O   0  0  0  0  0  0  0  0  0  0  0  0
   11.5078   -7.0566    0.0000 S   0  0  0  0  0  0  0  0  0  0  0  0
   12.3147   -7.2281    0.0000 C   0  0  0  0  0  0  0  0  0  0  0  0
   12.7272   -6.5137    0.0000 N   0  0  0  0  0  0  0  0  0  0  0  0
   12.1752   -5.9008    0.0000 C   0  0  0  0  0  0  0  0  0  0  0  0
   12.3470   -5.0940    0.0000 C   0  0  0  0  0  0  0  0  0  0  0  0
    5.0000   -9.9595    0.0000 C   0  0  0  0  0  0  0  0  0  0  0  0
    4.2860   -9.5465    0.0000 F   0  0  0  0  0  0  0  0  0  0  0  0
    4.9994  -10.7844    0.0000 F   0  0  0  0  0  0  0  0  0  0  0  0
    4.7871   -9.1626    0.0000 F   0  0  0  0  0  0  0  0  0  0  0  0
  2 29  1  0  0  0  0
 29 30  1  0  0  0  0
 29 31  1  0  0  0  0
 29 32  1  0  0  0  0
 10 16  1  0  0  0  0
  3  4  2  0  0  0  0
  7  8  1  0  0  0  0
  7  9  1  0  0  0  0
  4  5  1  0  0  0  0
 10 20  1  0  0  0  0
 16 17  1  0  0  0  0
 17 18  1  0  0  0  0
 18 19  1  0  0  0  0
 19 20  1  0  0  0  0
  9 10  1  0  0  0  0
 18 21  1  0  0  0  0
  2  3  1  0  0  0  0
 21 22  1  0  0  0  0
  8 11  2  0  0  0  0
 21 23  2  0  0  0  0
 22 24  1  0  0  0  0
  5  6  2  0  0  0  0
 11 12  1  0  0  0  0
  6  1  1  0  0  0  0
 12 13  2  0  0  0  0
 24 25  1  0  0  0  0
 25 26  2  0  0  0  0
 26 27  1  0  0  0  0
 27 22  2  0  0  0  0
  1  2  2  0  0  0  0
 27 28  1  0  0  0  0
 13 14  1  0  0  0  0
  5  7  1  0  0  0  0
 14 15  2  0  0  0  0
 15  8  1  0  0  0  0
M  END
> <Molecule Name>
DNDI1460907

> <CDD Number>
CDD-1535612

> <IC50_uM>
0.0623377895020348 ร/รท 1.10738333507404 (n=2)

$$$$

SketchEl molfile

 32 35  0  0  0  0  0  0  0  0999 V2000
    5.7158   -8.7203    0.0000 C   0  0  0  0  0  0  0  0  0  0  0  0
    5.7147   -9.5476    0.0000 C   0  0  0  0  0  0  0  0  0  0  0  0
    6.4294   -9.9605    0.0000 C   0  0  0  0  0  0  0  0  0  0  0  0
    7.1458   -9.5471    0.0000 C   0  0  0  0  0  0  0  0  0  0  0  0
    7.1430   -8.7167    0.0000 C   0  0  0  0  0  0  0  0  0  0  0  0
    6.4276   -8.3077    0.0000 C   0  0  0  0  0  0  0  0  0  0  0  0
    7.8558   -8.3016    0.0000 C   0  0  0  0  0  0  0  0  0  0  0  0
    8.5717   -8.7113    0.0000 C   0  0  0  0  0  0  0  0  0  0  0  0
    7.8527   -7.4767    0.0000 N   0  0  0  0  0  0  0  0  0  0  0  0
    8.5655   -7.0615    0.0000 C   0  0  0  0  0  0  0  0  0  0  0  0
    8.5715   -9.5339    0.0000 C   0  0  0  0  0  0  0  0  0  0  0  0
    9.2865   -9.9436    0.0000 N   0  0  0  0  0  0  0  0  0  0  0  0
   10.0003   -9.5283    0.0000 C   0  0  0  0  0  0  0  0  0  0  0  0
    9.9946   -8.6992    0.0000 C   0  0  0  0  0  0  0  0  0  0  0  0
    9.2789   -8.2933    0.0000 C   0  0  0  0  0  0  0  0  0  0  0  0
    9.2765   -7.4742    0.0000 C   0  0  0  0  0  0  0  0  0  0  0  0
    9.9872   -7.0625    0.0000 C   0  0  0  0  0  0  0  0  0  0  0  0
    9.9884   -6.2373    0.0000 N   0  0  0  0  0  0  0  0  0  0  0  0
    9.2726   -5.8254    0.0000 C   0  0  0  0  0  0  0  0  0  0  0  0
    8.5557   -6.2386    0.0000 C   0  0  0  0  0  0  0  0  0  0  0  0
   10.7027   -5.8249    0.0000 C   0  0  0  0  0  0  0  0  0  0  0  0
   11.4172   -6.2373    0.0000 C   0  0  0  0  0  0  0  0  0  0  0  0
   10.7027   -5.0000    0.0000 O   0  0  0  0  0  0  0  0  0  0  0  0
   11.5079   -7.0566    0.0000 O   0  0  0  0  0  0  0  0  0  0  0  0
   12.3147   -7.2281    0.0000 C   0  0  0  0  0  0  0  0  0  0  0  0
   12.7272   -6.5137    0.0000 N   0  0  0  0  0  0  0  0  0  0  0  0
   12.1752   -5.9008    0.0000 C   0  0  0  0  0  0  0  0  0  0  0  0
   12.3470   -5.0940    0.0000 C   0  0  0  0  0  0  0  0  0  0  0  0
    5.0000   -9.9595    0.0000 C   0  0  0  0  0  0  0  0  0  0  0  0
    4.2859   -9.5465    0.0000 F   0  0  0  0  0  0  0  0  0  0  0  0
    4.9993  -10.7844    0.0000 F   0  0  0  0  0  0  0  0  0  0  0  0
    4.7871   -9.1626    0.0000 F   0  0  0  0  0  0  0  0  0  0  0  0
  2 29  1  0  0  0  0
 29 30  1  0  0  0  0
 29 31  1  0  0  0  0
 29 32  1  0  0  0  0
 10 16  1  0  0  0  0
  3  4  2  0  0  0  0
  7  8  1  0  0  0  0
  7  9  1  0  0  0  0
  4  5  1  0  0  0  0
 10 20  1  0  0  0  0
 16 17  1  0  0  0  0
 17 18  1  0  0  0  0
 18 19  1  0  0  0  0
 19 20  1  0  0  0  0
  9 10  1  0  0  0  0
 18 21  1  0  0  0  0
  2  3  1  0  0  0  0
 21 22  1  0  0  0  0
  8 11  2  0  0  0  0
 21 23  2  0  0  0  0
 22 24  1  0  0  0  0
  5  6  2  0  0  0  0
 11 12  1  0  0  0  0
  6  1  1  0  0  0  0
 12 13  2  0  0  0  0
 24 25  1  0  0  0  0
 25 26  2  0  0  0  0
 26 27  1  0  0  0  0
 27 22  2  0  0  0  0
  1  2  2  0  0  0  0
 27 28  1  0  0  0  0
 13 14  1  0  0  0  0
  5  7  1  0  0  0  0
 14 15  2  0  0  0  0
 15  8  1  0  0  0  0
M  END
> <Molecule Name>
DNDI1460908

> <CDD Number>
CDD-1535613

> <IC50_uM>
0.14 (n=1)

$$$$

SketchEl molfile

 30 33  0  0  0  0  0  0  0  0999 V2000
    7.8549   -9.1053    0.0000 C   0  0  0  0  0  0  0  0  0  0  0  0
    7.8591   -9.9305    0.0000 C   0  0  0  0  0  0  0  0  0  0  0  0
    6.4170   -7.4715    0.0000 C   0  0  0  0  0  0  0  0  0  0  0  0
    7.1422   -8.7010    0.0000 C   0  0  0  0  0  0  0  0  0  0  0  0
    7.1339   -7.8800    0.0000 C   0  0  0  0  0  0  0  0  0  0  0  0
    6.4129   -6.6463    0.0000 N   0  0  0  0  0  0  0  0  0  0  0  0
    8.5718   -8.6927    0.0000 C   0  0  0  0  0  0  0  0  0  0  0  0
    8.5760  -10.3390    0.0000 C   0  0  0  0  0  0  0  0  0  0  0  0
    7.1464  -10.3473    0.0000 C   0  0  0  0  0  0  0  0  0  0  0  0
    5.7044   -7.8883    0.0000 O   0  0  0  0  0  0  0  0  0  0  0  0
    7.8508   -7.4590    0.0000 C   0  0  0  0  0  0  0  0  0  0  0  0
    9.2886  -11.5726    0.0000 N   0  0  0  0  0  0  0  0  0  0  0  0
    8.5676   -7.8716    0.0000 C   0  0  0  0  0  0  0  0  0  0  0  0
    6.4045   -5.0000    0.0000 O   0  0  0  0  0  0  0  0  0  0  0  0
    6.4295   -9.9347    0.0000 C   0  0  0  0  0  0  0  0  0  0  0  0
    7.1464  -11.1767    0.0000 C   0  0  0  0  0  0  0  0  0  0  0  0
    7.8549  -10.7516    0.0000 O   0  0  0  0  0  0  0  0  0  0  0  0
    9.2845   -9.1053    0.0000 F   0  0  0  0  0  0  0  0  0  0  0  0
    5.7169  -11.1767    0.0000 C   0  0  0  0  0  0  0  0  0  0  0  0
    5.7169  -10.3473    0.0000 C   0  0  0  0  0  0  0  0  0  0  0  0
    6.4295  -11.5893    0.0000 C   0  0  0  0  0  0  0  0  0  0  0  0
    8.5760  -11.1642    0.0000 C   0  0  0  0  0  0  0  0  0  0  0  0
    5.0000  -11.5893    0.0000 Cl  0  0  0  0  0  0  0  0  0  0  0  0
    7.1214   -6.2337    0.0000 C   0  0  0  0  0  0  0  0  0  0  0  0
    5.6919   -6.2420    0.0000 C   0  0  0  0  0  0  0  0  0  0  0  0
    9.2803   -9.9222    0.0000 C   0  0  0  0  0  0  0  0  0  0  0  0
   10.0055  -11.1559    0.0000 C   0  0  0  0  0  0  0  0  0  0  0  0
    5.6877   -5.4168    0.0000 C   0  0  0  0  0  0  0  0  0  0  0  0
    7.1172   -5.4085    0.0000 C   0  0  0  0  0  0  0  0  0  0  0  0
    9.9972  -10.3265    0.0000 C   0  0  0  0  0  0  0  0  0  0  0  0
  2  1  1  0  0  0  0
  3  5  1  0  0  0  0
  4  1  1  0  0  0  0
  5  4  2  0  0  0  0
  6  3  1  0  0  0  0
  7  1  2  0  0  0  0
  8  2  1  0  0  0  0
  9  2  1  0  0  0  0
 10  3  2  0  0  0  0
 11  5  1  0  0  0  0
 12 22  1  0  0  0  0
 13  7  1  0  0  0  0
 14 28  1  0  0  0  0
 15  9  2  0  0  0  0
 16  9  1  0  0  0  0
 17  2  1  0  0  0  0
 18  7  1  0  0  0  0
 19 20  2  0  0  0  0
 20 15  1  0  0  0  0
 21 16  2  0  0  0  0
 22  8  2  0  0  0  0
 23 19  1  0  0  0  0
 24  6  1  0  0  0  0
 25  6  1  0  0  0  0
 26  8  1  0  0  0  0
 27 12  2  0  0  0  0
 28 25  1  0  0  0  0
 29 24  1  0  0  0  0
 30 26  2  0  0  0  0
 11 13  2  0  0  0  0
 21 19  1  0  0  0  0
 30 27  1  0  0  0  0
 14 29  1  0  0  0  0
M  END
> <Molecule Name>
DNDI1460909

> <CDD Number>
CDD-1535614

> <IC50_uM>
0.048 (n=1)

$$$$

SketchEl molfile

 31 33  0  0  0  0  0  0  0  0999 V2000
    5.7159   -9.9580    0.0000 C   0  0  0  0  0  0  0  0  0  0  0  0
    5.7148  -10.7853    0.0000 C   0  0  0  0  0  0  0  0  0  0  0  0
    6.4295  -11.1982    0.0000 C   0  0  0  0  0  0  0  0  0  0  0  0
    7.1459  -10.7849    0.0000 C   0  0  0  0  0  0  0  0  0  0  0  0
    7.1431   -9.9543    0.0000 C   0  0  0  0  0  0  0  0  0  0  0  0
    6.4277   -9.5453    0.0000 C   0  0  0  0  0  0  0  0  0  0  0  0
    7.8559   -9.5392    0.0000 C   0  0  0  0  0  0  0  0  0  0  0  0
    8.5719   -9.9489    0.0000 C   0  0  0  0  0  0  0  0  0  0  0  0
    7.8528   -8.7142    0.0000 N   0  0  0  0  0  0  0  0  0  0  0  0
    8.5717  -10.7716    0.0000 C   0  0  0  0  0  0  0  0  0  0  0  0
    9.2867  -11.1813    0.0000 N   0  0  0  0  0  0  0  0  0  0  0  0
   10.0006  -10.7661    0.0000 C   0  0  0  0  0  0  0  0  0  0  0  0
    9.9949   -9.9368    0.0000 C   0  0  0  0  0  0  0  0  0  0  0  0
    9.2791   -9.5309    0.0000 C   0  0  0  0  0  0  0  0  0  0  0  0
    8.5669   -8.3035    0.0000 C   0  0  0  0  0  0  0  0  0  0  0  0
    8.5658   -7.4822    0.0000 C   0  0  0  0  0  0  0  0  0  0  0  0
    7.8516   -7.0686    0.0000 C   0  0  0  0  0  0  0  0  0  0  0  0
    7.1369   -7.4825    0.0000 C   0  0  0  0  0  0  0  0  0  0  0  0
    7.1364   -8.3101    0.0000 C   0  0  0  0  0  0  0  0  0  0  0  0
    7.8516   -6.2437    0.0000 N   0  0  0  0  0  0  0  0  0  0  0  0
    8.5661   -5.8312    0.0000 C   0  0  0  0  0  0  0  0  0  0  0  0
    8.5661   -5.0062    0.0000 O   0  0  0  0  0  0  0  0  0  0  0  0
    9.2804   -6.2437    0.0000 O   0  0  0  0  0  0  0  0  0  0  0  0
    9.9921   -5.8250    0.0000 C   0  0  0  0  0  0  0  0  0  0  0  0
   10.7099   -6.2316    0.0000 C   0  0  0  0  0  0  0  0  0  0  0  0
    9.9853   -5.0000    0.0000 C   0  0  0  0  0  0  0  0  0  0  0  0
   10.2121   -6.6200    0.0000 C   0  0  0  0  0  0  0  0  0  0  0  0
    5.0000  -11.1972    0.0000 C   0  0  0  0  0  0  0  0  0  0  0  0
    4.2858  -10.7842    0.0000 F   0  0  0  0  0  0  0  0  0  0  0  0
    4.9993  -12.0222    0.0000 F   0  0  0  0  0  0  0  0  0  0  0  0
    4.7871  -10.4002    0.0000 F   0  0  0  0  0  0  0  0  0  0  0  0
  2 28  1  0  0  0  0
 28 29  1  0  0  0  0
 28 30  1  0  0  0  0
 28 31  1  0  0  0  0
  9 15  1  0  0  0  0
  5  7  1  0  0  0  0
  3  4  2  0  0  0  0
  7  8  1  0  0  0  0
  7  9  1  0  0  0  0
  9 19  1  0  0  0  0
 15 16  1  0  0  0  0
 16 17  1  0  0  0  0
 17 18  1  0  0  0  0
 18 19  1  0  0  0  0
  4  5  1  0  0  0  0
 17 20  1  0  0  0  0
  8 10  2  0  0  0  0
 20 21  1  0  0  0  0
  2  3  1  0  0  0  0
 21 22  2  0  0  0  0
 10 11  1  0  0  0  0
 21 23  1  0  0  0  0
  5  6  2  0  0  0  0
 23 24  1  0  0  0  0
 11 12  2  0  0  0  0
 24 25  1  0  0  0  0
  6  1  1  0  0  0  0
 24 26  1  0  0  0  0
 12 13  1  0  0  0  0
 24 27  1  0  0  0  0
  1  2  2  0  0  0  0
 13 14  2  0  0  0  0
 14  8  1  0  0  0  0
M  END
> <Molecule Name>
DNDI1460910

> <CDD Number>
CDD-1535615

> <IC50_uM>
0.011 (n=1)

$$$$

SketchEl molfile

 32 35  0  0  0  0  0  0  0  0999 V2000
   12.1403   -5.8253    0.0000 C   0  0  0  0  0  0  0  0  0  0  0  0
   11.4233   -6.2338    0.0000 N   0  0  0  0  0  0  0  0  0  0  0  0
    9.2892   -8.2846    0.0000 C   0  0  0  0  0  0  0  0  0  0  0  0
    9.2850   -7.4593    0.0000 N   0  0  0  0  0  0  0  0  0  0  0  0
   10.0061   -8.6931    0.0000 C   0  0  0  0  0  0  0  0  0  0  0  0
    8.5764   -8.7015    0.0000 C   0  0  0  0  0  0  0  0  0  0  0  0
   10.7105   -5.8170    0.0000 C   0  0  0  0  0  0  0  0  0  0  0  0
   11.4191   -7.0592    0.0000 C   0  0  0  0  0  0  0  0  0  0  0  0
   12.1444   -5.0000    0.0000 O   0  0  0  0  0  0  0  0  0  0  0  0
   12.8530   -6.2422    0.0000 C   0  0  0  0  0  0  0  0  0  0  0  0
   10.7189   -9.9269    0.0000 N   0  0  0  0  0  0  0  0  0  0  0  0
    9.9936   -6.2255    0.0000 C   0  0  0  0  0  0  0  0  0  0  0  0
   10.7064   -7.4635    0.0000 C   0  0  0  0  0  0  0  0  0  0  0  0
    9.9978   -7.0466    0.0000 C   0  0  0  0  0  0  0  0  0  0  0  0
    7.8594   -8.2888    0.0000 C   0  0  0  0  0  0  0  0  0  0  0  0
    8.5764   -9.5309    0.0000 C   0  0  0  0  0  0  0  0  0  0  0  0
    6.4297   -9.9436    0.0000 O   0  0  0  0  0  0  0  0  0  0  0  0
    7.1467   -9.5309    0.0000 C   0  0  0  0  0  0  0  0  0  0  0  0
    7.8594   -9.9436    0.0000 C   0  0  0  0  0  0  0  0  0  0  0  0
    7.1467   -8.7056    0.0000 C   0  0  0  0  0  0  0  0  0  0  0  0
   10.0061   -9.5184    0.0000 C   0  0  0  0  0  0  0  0  0  0  0  0
   10.7105   -8.2763    0.0000 C   0  0  0  0  0  0  0  0  0  0  0  0
    5.7169   -9.5309    0.0000 C   0  0  0  0  0  0  0  0  0  0  0  0
   11.4358   -9.5101    0.0000 C   0  0  0  0  0  0  0  0  0  0  0  0
   12.8489   -7.0675    0.0000 C   0  0  0  0  0  0  0  0  0  0  0  0
   13.5658   -5.8337    0.0000 C   0  0  0  0  0  0  0  0  0  0  0  0
    5.0000   -9.9436    0.0000 C   0  0  0  0  0  0  0  0  0  0  0  0
    5.7169   -8.7056    0.0000 C   0  0  0  0  0  0  0  0  0  0  0  0
   11.4275   -8.6806    0.0000 C   0  0  0  0  0  0  0  0  0  0  0  0
   14.2786   -6.2463    0.0000 C   0  0  0  0  0  0  0  0  0  0  0  0
   13.5575   -7.4843    0.0000 C   0  0  0  0  0  0  0  0  0  0  0  0
   14.2786   -7.0758    0.0000 C   0  0  0  0  0  0  0  0  0  0  0  0
  2  1  1  0  0  0  0
  3  4  1  0  0  0  0
  4 14  1  0  0  0  0
  5  3  1  0  0  0  0
  6  3  1  0  0  0  0
  7  2  1  0  0  0  0
  8  2  1  0  0  0  0
  9  1  2  0  0  0  0
 10  1  1  0  0  0  0
 11 21  1  0  0  0  0
 12  7  1  0  0  0  0
 13  8  1  0  0  0  0
 14 12  1  0  0  0  0
 15  6  2  0  0  0  0
 16  6  1  0  0  0  0
 17 18  1  0  0  0  0
 18 20  2  0  0  0  0
 19 16  2  0  0  0  0
 20 15  1  0  0  0  0
 21  5  2  0  0  0  0
 22  5  1  0  0  0  0
 23 17  1  0  0  0  0
 24 29  1  0  0  0  0
 25 10  2  0  0  0  0
 26 10  1  0  0  0  0
 27 23  1  0  0  0  0
 28 23  1  0  0  0  0
 29 22  2  0  0  0  0
 30 26  2  0  0  0  0
 31 25  1  0  0  0  0
 32 30  1  0  0  0  0
 32 31  2  0  0  0  0
 13 14  1  0  0  0  0
 19 18  1  0  0  0  0
 24 11  2  0  0  0  0
M  END
> <Molecule Name>
DNDI1462988

> <CDD Number>
CDD-1535616

> <IC50_uM>
0.074 (n=1)

$$$$

SketchEl molfile

 28 30  0  0  0  0  0  0  0  0999 V2000
   12.1417   -5.8255    0.0000 S   0  0  0  0  0  0  0  0  0  0  0  0
   11.4246   -6.2341    0.0000 N   0  0  0  0  0  0  0  0  0  0  0  0
    9.2900   -8.2853    0.0000 C   0  0  0  0  0  0  0  0  0  0  0  0
    9.2859   -7.4598    0.0000 N   0  0  0  0  0  0  0  0  0  0  0  0
   12.1459   -5.0000    0.0000 O   0  0  0  0  0  0  0  0  0  0  0  0
   12.1334   -6.6468    0.0000 O   0  0  0  0  0  0  0  0  0  0  0  0
   10.0071   -8.6939    0.0000 C   0  0  0  0  0  0  0  0  0  0  0  0
    8.5771   -8.7022    0.0000 C   0  0  0  0  0  0  0  0  0  0  0  0
   10.7117   -5.8172    0.0000 C   0  0  0  0  0  0  0  0  0  0  0  0
   11.4204   -7.0596    0.0000 C   0  0  0  0  0  0  0  0  0  0  0  0
   10.7200   -9.9279    0.0000 N   0  0  0  0  0  0  0  0  0  0  0  0
    9.9946   -6.2257    0.0000 C   0  0  0  0  0  0  0  0  0  0  0  0
   10.7075   -7.4640    0.0000 C   0  0  0  0  0  0  0  0  0  0  0  0
    9.9988   -7.0471    0.0000 C   0  0  0  0  0  0  0  0  0  0  0  0
    7.8600   -8.2895    0.0000 C   0  0  0  0  0  0  0  0  0  0  0  0
    8.5771   -9.5319    0.0000 C   0  0  0  0  0  0  0  0  0  0  0  0
    6.4300   -9.9446    0.0000 O   0  0  0  0  0  0  0  0  0  0  0  0
   12.9672   -5.8213    0.0000 C   0  0  0  0  0  0  0  0  0  0  0  0
    7.1471   -9.5319    0.0000 C   0  0  0  0  0  0  0  0  0  0  0  0
    7.1471   -8.7064    0.0000 C   0  0  0  0  0  0  0  0  0  0  0  0
    7.8600   -9.9446    0.0000 C   0  0  0  0  0  0  0  0  0  0  0  0
   10.0071   -9.5193    0.0000 C   0  0  0  0  0  0  0  0  0  0  0  0
   10.7117   -8.2770    0.0000 C   0  0  0  0  0  0  0  0  0  0  0  0
    5.7171   -9.5319    0.0000 C   0  0  0  0  0  0  0  0  0  0  0  0
   11.4371   -9.5110    0.0000 C   0  0  0  0  0  0  0  0  0  0  0  0
   11.4288   -8.6814    0.0000 C   0  0  0  0  0  0  0  0  0  0  0  0
    5.0000   -9.9446    0.0000 C   0  0  0  0  0  0  0  0  0  0  0  0
    5.7171   -8.7064    0.0000 C   0  0  0  0  0  0  0  0  0  0  0  0
  2  1  1  0  0  0  0
  3  4  1  0  0  0  0
  4 14  1  0  0  0  0
  5  1  2  0  0  0  0
  6  1  2  0  0  0  0
  7  3  1  0  0  0  0
  8  3  1  0  0  0  0
  9  2  1  0  0  0  0
 10  2  1  0  0  0  0
 11 22  1  0  0  0  0
 12  9  1  0  0  0  0
 13 10  1  0  0  0  0
 14 12  1  0  0  0  0
 15  8  2  0  0  0  0
 16  8  1  0  0  0  0
 17 19  1  0  0  0  0
 18  1  1  0  0  0  0
 19 20  2  0  0  0  0
 20 15  1  0  0  0  0
 21 16  2  0  0  0  0
 22  7  2  0  0  0  0
 23  7  1  0  0  0  0
 24 17  1  0  0  0  0
 25 11  2  0  0  0  0
 26 23  2  0  0  0  0
 27 24  1  0  0  0  0
 28 24  1  0  0  0  0
 13 14  1  0  0  0  0
 26 25  1  0  0  0  0
 21 19  1  0  0  0  0
M  END
> <Molecule Name>
DNDI1462989

> <CDD Number>
CDD-1535617

> <IC50_uM>
0.14 (n=1)

$$$$

SketchEl molfile

 31 33  0  0  0  0  0  0  0  0999 V2000
   12.1415   -5.8254    0.0000 C   0  0  0  0  0  0  0  0  0  0  0  0
   11.4244   -6.2340    0.0000 N   0  0  0  0  0  0  0  0  0  0  0  0
    9.2899   -8.2851    0.0000 C   0  0  0  0  0  0  0  0  0  0  0  0
    9.2857   -7.4597    0.0000 N   0  0  0  0  0  0  0  0  0  0  0  0
   12.8544   -6.2423    0.0000 N   0  0  0  0  0  0  0  0  0  0  0  0
   10.0070   -8.6937    0.0000 C   0  0  0  0  0  0  0  0  0  0  0  0
   12.1456   -5.0000    0.0000 O   0  0  0  0  0  0  0  0  0  0  0  0
    8.5770   -8.7020    0.0000 C   0  0  0  0  0  0  0  0  0  0  0  0
   10.7115   -5.8171    0.0000 C   0  0  0  0  0  0  0  0  0  0  0  0
   11.4202   -7.0595    0.0000 C   0  0  0  0  0  0  0  0  0  0  0  0
   10.7199   -9.9277    0.0000 N   0  0  0  0  0  0  0  0  0  0  0  0
    9.9944   -6.2257    0.0000 C   0  0  0  0  0  0  0  0  0  0  0  0
   10.7073   -7.4639    0.0000 C   0  0  0  0  0  0  0  0  0  0  0  0
    9.9986   -7.0470    0.0000 C   0  0  0  0  0  0  0  0  0  0  0  0
    7.8599   -8.2893    0.0000 C   0  0  0  0  0  0  0  0  0  0  0  0
    8.5770   -9.5317    0.0000 C   0  0  0  0  0  0  0  0  0  0  0  0
    6.4300   -9.9444    0.0000 O   0  0  0  0  0  0  0  0  0  0  0  0
    7.1470   -9.5317    0.0000 C   0  0  0  0  0  0  0  0  0  0  0  0
    7.8599   -9.9444    0.0000 C   0  0  0  0  0  0  0  0  0  0  0  0
    7.1470   -8.7062    0.0000 C   0  0  0  0  0  0  0  0  0  0  0  0
   10.0070   -9.5192    0.0000 C   0  0  0  0  0  0  0  0  0  0  0  0
   12.8502   -7.0678    0.0000 C   0  0  0  0  0  0  0  0  0  0  0  0
   13.5714   -5.8338    0.0000 C   0  0  0  0  0  0  0  0  0  0  0  0
   10.7115   -8.2768    0.0000 C   0  0  0  0  0  0  0  0  0  0  0  0
    5.7171   -9.5317    0.0000 C   0  0  0  0  0  0  0  0  0  0  0  0
   11.4369   -9.5108    0.0000 C   0  0  0  0  0  0  0  0  0  0  0  0
    5.0000   -9.9444    0.0000 C   0  0  0  0  0  0  0  0  0  0  0  0
    5.7171   -8.7062    0.0000 C   0  0  0  0  0  0  0  0  0  0  0  0
   11.4286   -8.6812    0.0000 C   0  0  0  0  0  0  0  0  0  0  0  0
   13.5589   -7.4805    0.0000 C   0  0  0  0  0  0  0  0  0  0  0  0
   14.2843   -6.2507    0.0000 C   0  0  0  0  0  0  0  0  0  0  0  0
  2  1  1  0  0  0  0
  3  4  1  0  0  0  0
  4 14  1  0  0  0  0
  5  1  1  0  0  0  0
  6  3  1  0  0  0  0
  7  1  2  0  0  0  0
  8  3  1  0  0  0  0
  9  2  1  0  0  0  0
 10  2  1  0  0  0  0
 11 21  1  0  0  0  0
 12  9  1  0  0  0  0
 13 10  1  0  0  0  0
 14 12  1  0  0  0  0
 15  8  2  0  0  0  0
 16  8  1  0  0  0  0
 17 18  1  0  0  0  0
 18 20  2  0  0  0  0
 19 16  2  0  0  0  0
 20 15  1  0  0  0  0
 21  6  2  0  0  0  0
 22  5  1  0  0  0  0
 23  5  1  0  0  0  0
 24  6  1  0  0  0  0
 25 17  1  0  0  0  0
 26 29  1  0  0  0  0
 27 25  1  0  0  0  0
 28 25  1  0  0  0  0
 29 24  2  0  0  0  0
 30 22  1  0  0  0  0
 31 23  1  0  0  0  0
 13 14  1  0  0  0  0
 19 18  1  0  0  0  0
 26 11  2  0  0  0  0
M  END
> <Molecule Name>
DNDI1462990

> <CDD Number>
CDD-1535618

> <IC50_uM>
0.007 (n=1)

$$$$

SketchEl molfile

 33 36  0  0  0  0  0  0  0  0999 V2000
   12.1404   -6.2255    0.0000 C   0  0  0  0  0  0  0  0  0  0  0  0
   11.4234   -6.6340    0.0000 N   0  0  0  0  0  0  0  0  0  0  0  0
    9.2892   -8.6848    0.0000 C   0  0  0  0  0  0  0  0  0  0  0  0
   12.8531   -6.6423    0.0000 N   0  0  0  0  0  0  0  0  0  0  0  0
    9.2850   -7.8595    0.0000 N   0  0  0  0  0  0  0  0  0  0  0  0
   10.0062   -9.0933    0.0000 C   0  0  0  0  0  0  0  0  0  0  0  0
    8.5764   -9.1016    0.0000 C   0  0  0  0  0  0  0  0  0  0  0  0
   12.1445   -5.4002    0.0000 O   0  0  0  0  0  0  0  0  0  0  0  0
   10.7106   -6.2171    0.0000 C   0  0  0  0  0  0  0  0  0  0  0  0
   11.4192   -7.4593    0.0000 C   0  0  0  0  0  0  0  0  0  0  0  0
   10.7190  -10.3271    0.0000 N   0  0  0  0  0  0  0  0  0  0  0  0
    9.9937   -6.6256    0.0000 C   0  0  0  0  0  0  0  0  0  0  0  0
   10.7065   -7.8636    0.0000 C   0  0  0  0  0  0  0  0  0  0  0  0
    9.9978   -7.4468    0.0000 C   0  0  0  0  0  0  0  0  0  0  0  0
    7.8595   -8.6890    0.0000 C   0  0  0  0  0  0  0  0  0  0  0  0
    8.5764   -9.9311    0.0000 C   0  0  0  0  0  0  0  0  0  0  0  0
    6.4297  -10.3438    0.0000 O   0  0  0  0  0  0  0  0  0  0  0  0
    7.1467   -9.9311    0.0000 C   0  0  0  0  0  0  0  0  0  0  0  0
   13.5701   -6.2338    0.0000 C   0  0  0  0  0  0  0  0  0  0  0  0
    7.1467   -9.1058    0.0000 C   0  0  0  0  0  0  0  0  0  0  0  0
    7.8595  -10.3438    0.0000 C   0  0  0  0  0  0  0  0  0  0  0  0
   10.0062   -9.9186    0.0000 C   0  0  0  0  0  0  0  0  0  0  0  0
   10.7106   -8.6765    0.0000 C   0  0  0  0  0  0  0  0  0  0  0  0
    5.7170   -9.9311    0.0000 C   0  0  0  0  0  0  0  0  0  0  0  0
   11.4359   -9.9103    0.0000 C   0  0  0  0  0  0  0  0  0  0  0  0
   14.2829   -6.6507    0.0000 C   0  0  0  0  0  0  0  0  0  0  0  0
   13.5743   -5.4127    0.0000 C   0  0  0  0  0  0  0  0  0  0  0  0
    5.7170   -9.1058    0.0000 C   0  0  0  0  0  0  0  0  0  0  0  0
   11.4276   -9.0808    0.0000 C   0  0  0  0  0  0  0  0  0  0  0  0
    5.0000  -10.3438    0.0000 C   0  0  0  0  0  0  0  0  0  0  0  0
   14.2871   -5.0000    0.0000 C   0  0  0  0  0  0  0  0  0  0  0  0
   14.9998   -6.2422    0.0000 C   0  0  0  0  0  0  0  0  0  0  0  0
   15.0040   -5.4168    0.0000 C   0  0  0  0  0  0  0  0  0  0  0  0
  2  1  1  0  0  0  0
  3  5  1  0  0  0  0
  4  1  1  0  0  0  0
  5 14  1  0  0  0  0
  6  3  1  0  0  0  0
  7  3  1  0  0  0  0
  8  1  2  0  0  0  0
  9  2  1  0  0  0  0
 10  2  1  0  0  0  0
 11 22  1  0  0  0  0
 12  9  1  0  0  0  0
 13 10  1  0  0  0  0
 14 12  1  0  0  0  0
 15  7  2  0  0  0  0
 16  7  1  0  0  0  0
 17 18  1  0  0  0  0
 18 20  2  0  0  0  0
 19  4  1  0  0  0  0
 20 15  1  0  0  0  0
 21 16  2  0  0  0  0
 22  6  2  0  0  0  0
 23  6  1  0  0  0  0
 24 17  1  0  0  0  0
 25 29  1  0  0  0  0
 26 19  2  0  0  0  0
 27 19  1  0  0  0  0
 28 24  1  0  0  0  0
 29 23  2  0  0  0  0
 30 24  1  0  0  0  0
 31 27  2  0  0  0  0
 32 26  1  0  0  0  0
 33 31  1  0  0  0  0
 13 14  1  0  0  0  0
 33 32  2  0  0  0  0
 21 18  1  0  0  0  0
 25 11  2  0  0  0  0
M  END
> <Molecule Name>
DNDI1462991

> <CDD Number>
CDD-1535619

> <IC50_uM>
0.072 (n=1)

$$$$

SketchEl molfile

 31 33  0  0  0  0  0  0  0  0999 V2000
   12.1407   -5.8254    0.0000 C   0  0  0  0  0  0  0  0  0  0  0  0
   11.4237   -6.2339    0.0000 N   0  0  0  0  0  0  0  0  0  0  0  0
    9.2894   -8.2848    0.0000 C   0  0  0  0  0  0  0  0  0  0  0  0
   12.8535   -6.2423    0.0000 O   0  0  0  0  0  0  0  0  0  0  0  0
    9.2852   -7.4595    0.0000 N   0  0  0  0  0  0  0  0  0  0  0  0
   10.0064   -8.6933    0.0000 C   0  0  0  0  0  0  0  0  0  0  0  0
    8.5766   -8.7017    0.0000 C   0  0  0  0  0  0  0  0  0  0  0  0
   12.1448   -5.0000    0.0000 O   0  0  0  0  0  0  0  0  0  0  0  0
   10.7109   -5.8171    0.0000 C   0  0  0  0  0  0  0  0  0  0  0  0
   11.4195   -7.0593    0.0000 C   0  0  0  0  0  0  0  0  0  0  0  0
   10.7192   -9.9272    0.0000 N   0  0  0  0  0  0  0  0  0  0  0  0
   13.5663   -5.8212    0.0000 C   0  0  0  0  0  0  0  0  0  0  0  0
   10.7067   -7.4636    0.0000 C   0  0  0  0  0  0  0  0  0  0  0  0
    9.9939   -6.2256    0.0000 C   0  0  0  0  0  0  0  0  0  0  0  0
    9.9980   -7.0468    0.0000 C   0  0  0  0  0  0  0  0  0  0  0  0
    8.5766   -9.5312    0.0000 C   0  0  0  0  0  0  0  0  0  0  0  0
    7.8596   -8.2890    0.0000 C   0  0  0  0  0  0  0  0  0  0  0  0
    6.4298   -9.9439    0.0000 O   0  0  0  0  0  0  0  0  0  0  0  0
    7.1468   -9.5312    0.0000 C   0  0  0  0  0  0  0  0  0  0  0  0
    7.1468   -8.7059    0.0000 C   0  0  0  0  0  0  0  0  0  0  0  0
    7.8596   -9.9439    0.0000 C   0  0  0  0  0  0  0  0  0  0  0  0
   10.0064   -9.5187    0.0000 C   0  0  0  0  0  0  0  0  0  0  0  0
   10.7109   -8.2765    0.0000 C   0  0  0  0  0  0  0  0  0  0  0  0
    5.7170   -9.5312    0.0000 C   0  0  0  0  0  0  0  0  0  0  0  0
   11.4362   -9.5104    0.0000 C   0  0  0  0  0  0  0  0  0  0  0  0
   14.2833   -6.2298    0.0000 C   0  0  0  0  0  0  0  0  0  0  0  0
   13.5580   -5.0000    0.0000 C   0  0  0  0  0  0  0  0  0  0  0  0
   13.7831   -6.6174    0.0000 C   0  0  0  0  0  0  0  0  0  0  0  0
   11.4278   -8.6808    0.0000 C   0  0  0  0  0  0  0  0  0  0  0  0
    5.0000   -9.9439    0.0000 C   0  0  0  0  0  0  0  0  0  0  0  0
    5.7170   -8.7059    0.0000 C   0  0  0  0  0  0  0  0  0  0  0  0
  2  1  1  0  0  0  0
  3  5  1  0  0  0  0
  4  1  1  0  0  0  0
  5 15  1  0  0  0  0
  6  3  1  0  0  0  0
  7  3  1  0  0  0  0
  8  1  2  0  0  0  0
  9  2  1  0  0  0  0
 10  2  1  0  0  0  0
 11 22  1  0  0  0  0
 12  4  1  0  0  0  0
 13 10  1  0  0  0  0
 14  9  1  0  0  0  0
 15 14  1  0  0  0  0
 16  7  1  0  0  0  0
 17  7  2  0  0  0  0
 18 19  1  0  0  0  0
 19 20  2  0  0  0  0
 20 17  1  0  0  0  0
 21 16  2  0  0  0  0
 22  6  2  0  0  0  0
 23  6  1  0  0  0  0
 24 18  1  0  0  0  0
 25 29  1  0  0  0  0
 26 12  1  0  0  0  0
 27 12  1  0  0  0  0
 28 12  1  0  0  0  0
 29 23  2  0  0  0  0
 30 24  1  0  0  0  0
 31 24  1  0  0  0  0
 13 15  1  0  0  0  0
 21 19  1  0  0  0  0
 25 11  2  0  0  0  0
M  END
> <Molecule Name>
DNDI1462992

> <CDD Number>
CDD-1535620

> <IC50_uM>
0.0062 (n=1)

$$$$

SketchEl molfile

 32 35  0  0  0  0  0  0  0  0999 V2000
    5.7161   -9.9524    0.0000 C   0  0  0  0  0  0  0  0  0  0  0  0
    5.7149  -10.7799    0.0000 C   0  0  0  0  0  0  0  0  0  0  0  0
    6.4298  -11.1928    0.0000 C   0  0  0  0  0  0  0  0  0  0  0  0
    7.1463  -10.7794    0.0000 C   0  0  0  0  0  0  0  0  0  0  0  0
    7.1434   -9.9488    0.0000 C   0  0  0  0  0  0  0  0  0  0  0  0
    6.4280   -9.5397    0.0000 C   0  0  0  0  0  0  0  0  0  0  0  0
    7.8564   -9.5336    0.0000 C   0  0  0  0  0  0  0  0  0  0  0  0
    8.5725   -9.9434    0.0000 C   0  0  0  0  0  0  0  0  0  0  0  0
    7.8532   -8.7086    0.0000 N   0  0  0  0  0  0  0  0  0  0  0  0
    8.5722  -10.7662    0.0000 C   0  0  0  0  0  0  0  0  0  0  0  0
    9.2874  -11.1759    0.0000 N   0  0  0  0  0  0  0  0  0  0  0  0
   10.0014  -10.7606    0.0000 C   0  0  0  0  0  0  0  0  0  0  0  0
    9.9956   -9.9313    0.0000 C   0  0  0  0  0  0  0  0  0  0  0  0
    9.2798   -9.5253    0.0000 C   0  0  0  0  0  0  0  0  0  0  0  0
    8.5675   -8.2978    0.0000 C   0  0  0  0  0  0  0  0  0  0  0  0
    8.5663   -7.4764    0.0000 C   0  0  0  0  0  0  0  0  0  0  0  0
    7.8520   -7.0626    0.0000 C   0  0  0  0  0  0  0  0  0  0  0  0
    7.1373   -7.4767    0.0000 C   0  0  0  0  0  0  0  0  0  0  0  0
    7.1368   -8.3043    0.0000 C   0  0  0  0  0  0  0  0  0  0  0  0
    7.8520   -6.2376    0.0000 N   0  0  0  0  0  0  0  0  0  0  0  0
    8.5666   -5.8250    0.0000 C   0  0  0  0  0  0  0  0  0  0  0  0
    8.5666   -5.0000    0.0000 O   0  0  0  0  0  0  0  0  0  0  0  0
    9.2811   -6.2376    0.0000 C   0  0  0  0  0  0  0  0  0  0  0  0
    9.3649   -7.0574    0.0000 N   0  0  0  0  0  0  0  0  0  0  0  0
   10.1720   -7.2289    0.0000 O   0  0  0  0  0  0  0  0  0  0  0  0
   10.5845   -6.5144    0.0000 C   0  0  0  0  0  0  0  0  0  0  0  0
   10.0324   -5.9013    0.0000 C   0  0  0  0  0  0  0  0  0  0  0  0
   11.4051   -6.4281    0.0000 C   0  0  0  0  0  0  0  0  0  0  0  0
    5.0000  -11.1918    0.0000 C   0  0  0  0  0  0  0  0  0  0  0  0
    4.2858  -10.7788    0.0000 F   0  0  0  0  0  0  0  0  0  0  0  0
    4.9994  -12.0169    0.0000 F   0  0  0  0  0  0  0  0  0  0  0  0
    4.7872  -10.3948    0.0000 F   0  0  0  0  0  0  0  0  0  0  0  0
  2 29  1  0  0  0  0
 29 30  1  0  0  0  0
 29 31  1  0  0  0  0
 29 32  1  0  0  0  0
  3  4  2  0  0  0  0
  7  8  1  0  0  0  0
  7  9  1  0  0  0  0
  9 19  1  0  0  0  0
 15 16  1  0  0  0  0
 16 17  1  0  0  0  0
 17 18  1  0  0  0  0
 18 19  1  0  0  0  0
  4  5  1  0  0  0  0
 17 20  1  0  0  0  0
  8 10  2  0  0  0  0
 20 21  1  0  0  0  0
  2  3  1  0  0  0  0
 21 22  2  0  0  0  0
 10 11  1  0  0  0  0
 21 23  1  0  0  0  0
 23 24  2  0  0  0  0
  5  6  2  0  0  0  0
 11 12  2  0  0  0  0
  6  1  1  0  0  0  0
 12 13  1  0  0  0  0
 24 25  1  0  0  0  0
 25 26  1  0  0  0  0
 26 27  2  0  0  0  0
 27 23  1  0  0  0  0
  1  2  2  0  0  0  0
 26 28  1  0  0  0  0
 13 14  2  0  0  0  0
 14  8  1  0  0  0  0
  9 15  1  0  0  0  0
  5  7  1  0  0  0  0
M  END
> <Molecule Name>
DNDI1462993

> <CDD Number>
CDD-1535621

> <IC50_uM>
0.0093 (n=1)

$$$$

SketchEl molfile

 32 35  0  0  0  0  0  0  0  0999 V2000
    5.7159   -9.9518    0.0000 C   0  0  0  0  0  0  0  0  0  0  0  0
    5.7147  -10.7791    0.0000 C   0  0  0  0  0  0  0  0  0  0  0  0
    6.4295  -11.1919    0.0000 C   0  0  0  0  0  0  0  0  0  0  0  0
    7.1459  -10.7786    0.0000 C   0  0  0  0  0  0  0  0  0  0  0  0
    7.1430   -9.9482    0.0000 C   0  0  0  0  0  0  0  0  0  0  0  0
    6.4277   -9.5390    0.0000 C   0  0  0  0  0  0  0  0  0  0  0  0
    7.8559   -9.5330    0.0000 C   0  0  0  0  0  0  0  0  0  0  0  0
    8.5718   -9.9428    0.0000 C   0  0  0  0  0  0  0  0  0  0  0  0
    7.8528   -8.7080    0.0000 N   0  0  0  0  0  0  0  0  0  0  0  0
    8.5716  -10.7653    0.0000 C   0  0  0  0  0  0  0  0  0  0  0  0
    9.2868  -11.1750    0.0000 N   0  0  0  0  0  0  0  0  0  0  0  0
   10.0006  -10.7598    0.0000 C   0  0  0  0  0  0  0  0  0  0  0  0
    9.9948   -9.9307    0.0000 C   0  0  0  0  0  0  0  0  0  0  0  0
    9.2791   -9.5247    0.0000 C   0  0  0  0  0  0  0  0  0  0  0  0
    8.5668   -8.2974    0.0000 C   0  0  0  0  0  0  0  0  0  0  0  0
    8.5657   -7.4760    0.0000 C   0  0  0  0  0  0  0  0  0  0  0  0
    7.8516   -7.0624    0.0000 C   0  0  0  0  0  0  0  0  0  0  0  0
    7.1369   -7.4763    0.0000 C   0  0  0  0  0  0  0  0  0  0  0  0
    7.1363   -8.3039    0.0000 C   0  0  0  0  0  0  0  0  0  0  0  0
    7.8516   -6.2374    0.0000 N   0  0  0  0  0  0  0  0  0  0  0  0
    8.5660   -5.8250    0.0000 C   0  0  0  0  0  0  0  0  0  0  0  0
    8.5660   -5.0000    0.0000 O   0  0  0  0  0  0  0  0  0  0  0  0
    9.2805   -6.2374    0.0000 C   0  0  0  0  0  0  0  0  0  0  0  0
    9.3688   -7.0567    0.0000 S   0  0  0  0  0  0  0  0  0  0  0  0
   10.1757   -7.2282    0.0000 C   0  0  0  0  0  0  0  0  0  0  0  0
   10.5882   -6.5137    0.0000 N   0  0  0  0  0  0  0  0  0  0  0  0
   10.0361   -5.9008    0.0000 C   0  0  0  0  0  0  0  0  0  0  0  0
   10.2075   -5.0938    0.0000 C   0  0  0  0  0  0  0  0  0  0  0  0
    5.0000  -11.1910    0.0000 C   0  0  0  0  0  0  0  0  0  0  0  0
    4.2860  -10.7779    0.0000 F   0  0  0  0  0  0  0  0  0  0  0  0
    4.9994  -12.0159    0.0000 F   0  0  0  0  0  0  0  0  0  0  0  0
    4.7871  -10.3939    0.0000 F   0  0  0  0  0  0  0  0  0  0  0  0
  2 29  1  0  0  0  0
 29 30  1  0  0  0  0
 29 31  1  0  0  0  0
 29 32  1  0  0  0  0
  3  4  2  0  0  0  0
  7  8  1  0  0  0  0
  7  9  1  0  0  0  0
  9 19  1  0  0  0  0
 15 16  1  0  0  0  0
 16 17  1  0  0  0  0
 17 18  1  0  0  0  0
 18 19  1  0  0  0  0
  4  5  1  0  0  0  0
 17 20  1  0  0  0  0
  8 10  2  0  0  0  0
 20 21  1  0  0  0  0
  2  3  1  0  0  0  0
 21 22  2  0  0  0  0
 10 11  1  0  0  0  0
 21 23  1  0  0  0  0
 23 24  1  0  0  0  0
  5  6  2  0  0  0  0
 11 12  2  0  0  0  0
  6  1  1  0  0  0  0
 12 13  1  0  0  0  0
 24 25  1  0  0  0  0
 25 26  2  0  0  0  0
 26 27  1  0  0  0  0
 27 23  2  0  0  0  0
  1  2  2  0  0  0  0
 27 28  1  0  0  0  0
 13 14  2  0  0  0  0
 14  8  1  0  0  0  0
  9 15  1  0  0  0  0
  5  7  1  0  0  0  0
M  END
> <Molecule Name>
DNDI1462994

> <CDD Number>
CDD-1535622

> <IC50_uM>
0.018 (n=1)

$$$$

SketchEl molfile

 32 35  0  0  0  0  0  0  0  0999 V2000
   -7.4247   -3.8290    0.0000 C   0  0  0  0  0  0  0  0  0  0  0  0
   -5.0396   -2.4481    0.0000 C   0  0  0  0  0  0  0  0  0  0  0  0
   -2.6467   -3.8170    0.0000 C   0  0  0  0  0  0  0  0  0  0  0  0
   -2.6467   -6.5949    0.0000 C   0  0  0  0  0  0  0  0  0  0  0  0
   -5.0335   -7.9775    0.0000 C   0  0  0  0  0  0  0  0  0  0  0  0
   -7.4247   -6.5966    0.0000 C   0  0  0  0  0  0  0  0  0  0  0  0
   -9.8160   -7.9772    0.0000 C   0  0  0  0  0  0  0  0  0  0  0  0
   -9.8160  -10.7385    0.0000 F   0  0  0  0  0  0  0  0  0  0  0  0
  -12.2074   -6.5966    0.0000 F   0  0  0  0  0  0  0  0  0  0  0  0
   -7.4247   -9.3578    0.0000 F   0  0  0  0  0  0  0  0  0  0  0  0
   -0.2619   -2.4281    0.0000 C   0  0  0  0  0  0  0  0  0  0  0  0
    2.1330   -3.7989    0.0000 C   0  0  0  0  0  0  0  0  0  0  0  0
    2.1330   -6.5504    0.0000 C   0  0  0  0  0  0  0  0  0  0  0  0
    4.5248   -7.9209    0.0000 N   0  0  0  0  0  0  0  0  0  0  0  0
    6.9127   -6.5320    0.0000 C   0  0  0  0  0  0  0  0  0  0  0  0
    6.9127   -3.7585    0.0000 C   0  0  0  0  0  0  0  0  0  0  0  0
    4.4991   -2.4003    0.0000 C   0  0  0  0  0  0  0  0  0  0  0  0
   -0.2619    0.3318    0.0000 N   0  0  0  0  0  0  0  0  0  0  0  0
   -2.6671    1.6836    0.0000 C   0  0  0  0  0  0  0  0  0  0  0  0
   -2.6671    4.4521    0.0000 C   0  0  0  0  0  0  0  0  0  0  0  0
   -0.2763    5.8367    0.0000 C   0  0  0  0  0  0  0  0  0  0  0  0
    2.1162    4.4531    0.0000 C   0  0  0  0  0  0  0  0  0  0  0  0
    2.1162    1.7053    0.0000 C   0  0  0  0  0  0  0  0  0  0  0  0
   -0.2763    8.5965    0.0000 N   0  0  0  0  0  0  0  0  0  0  0  0
    2.1136    9.9761    0.0000 C   0  0  0  0  0  0  0  0  0  0  0  0
    2.1136   12.7359    0.0000 O   0  0  0  0  0  0  0  0  0  0  0  0
    4.5037    8.5965    0.0000 C   0  0  0  0  0  0  0  0  0  0  0  0
    4.7991    5.8558    0.0000 O   0  0  0  0  0  0  0  0  0  0  0  0
    7.4984    5.2820    0.0000 C   0  0  0  0  0  0  0  0  0  0  0  0
    8.8783    7.6722    0.0000 N   0  0  0  0  0  0  0  0  0  0  0  0
    7.0314    9.7225    0.0000 C   0  0  0  0  0  0  0  0  0  0  0  0
    7.6048   12.4221    0.0000 C   0  0  0  0  0  0  0  0  0  0  0  0
  2  1  1  0  0  0  0
  3  2  2  0  0  0  0
  4  3  1  0  0  0  0
  5  4  2  0  0  0  0
  6  5  1  0  0  0  0
  1  6  2  0  0  0  0
  6  7  1  0  0  0  0
  7  8  1  0  0  0  0
  7  9  1  0  0  0  0
  7 10  1  0  0  0  0
  3 11  1  0  0  0  0
 11 12  1  0  0  0  0
 12 13  2  0  0  0  0
 13 14  1  0  0  0  0
 14 15  2  0  0  0  0
 15 16  1  0  0  0  0
 16 17  2  0  0  0  0
 17 12  1  0  0  0  0
 11 18  1  0  0  0  0
 18 19  1  0  0  0  0
 20 19  1  0  0  0  0
 21 20  1  0  0  0  0
 22 21  1  0  0  0  0
 23 22  1  0  0  0  0
 18 23  1  0  0  0  0
 21 24  1  0  0  0  0
 24 25  1  0  0  0  0
 25 26  2  0  0  0  0
 25 27  1  0  0  0  0
 27 28  1  0  0  0  0
 28 29  1  0  0  0  0
 29 30  2  0  0  0  0
 30 31  1  0  0  0  0
 31 27  2  0  0  0  0
 31 32  1  0  0  0  0
M  END
> <Molecule Name>
DNDI1462995

> <CDD Number>
CDD-1535623

> <IC50_uM>
0.029 (n=1)

$$$$

SketchEl molfile

 32 35  0  0  0  0  0  0  0  0999 V2000
    5.7159   -8.7187    0.0000 C   0  0  0  0  0  0  0  0  0  0  0  0
    5.7148   -9.5460    0.0000 C   0  0  0  0  0  0  0  0  0  0  0  0
    6.4296   -9.9589    0.0000 C   0  0  0  0  0  0  0  0  0  0  0  0
    7.1460   -9.5456    0.0000 C   0  0  0  0  0  0  0  0  0  0  0  0
    7.1432   -8.7150    0.0000 C   0  0  0  0  0  0  0  0  0  0  0  0
    6.4278   -8.3059    0.0000 C   0  0  0  0  0  0  0  0  0  0  0  0
    7.8561   -8.2998    0.0000 C   0  0  0  0  0  0  0  0  0  0  0  0
    8.5721   -8.7096    0.0000 C   0  0  0  0  0  0  0  0  0  0  0  0
    7.8530   -7.4748    0.0000 N   0  0  0  0  0  0  0  0  0  0  0  0
    8.5659   -7.0597    0.0000 C   0  0  0  0  0  0  0  0  0  0  0  0
    9.2810   -7.4746    0.0000 C   0  0  0  0  0  0  0  0  0  0  0  0
    9.9919   -7.0629    0.0000 C   0  0  0  0  0  0  0  0  0  0  0  0
    9.9930   -6.2376    0.0000 N   0  0  0  0  0  0  0  0  0  0  0  0
    9.2770   -5.8256    0.0000 C   0  0  0  0  0  0  0  0  0  0  0  0
    8.5600   -6.2389    0.0000 C   0  0  0  0  0  0  0  0  0  0  0  0
    8.5719   -9.5323    0.0000 C   0  0  0  0  0  0  0  0  0  0  0  0
    9.2870   -9.9420    0.0000 N   0  0  0  0  0  0  0  0  0  0  0  0
   10.0010   -9.5268    0.0000 C   0  0  0  0  0  0  0  0  0  0  0  0
    9.9952   -8.6975    0.0000 C   0  0  0  0  0  0  0  0  0  0  0  0
    9.2794   -8.2915    0.0000 C   0  0  0  0  0  0  0  0  0  0  0  0
   10.7075   -5.8251    0.0000 C   0  0  0  0  0  0  0  0  0  0  0  0
   11.4219   -6.2376    0.0000 C   0  0  0  0  0  0  0  0  0  0  0  0
   10.7075   -5.0000    0.0000 O   0  0  0  0  0  0  0  0  0  0  0  0
   11.5060   -7.0579    0.0000 N   0  0  0  0  0  0  0  0  0  0  0  0
   12.3130   -7.2294    0.0000 N   0  0  0  0  0  0  0  0  0  0  0  0
   12.7255   -6.5149    0.0000 C   0  0  0  0  0  0  0  0  0  0  0  0
   12.1734   -5.9019    0.0000 C   0  0  0  0  0  0  0  0  0  0  0  0
   13.5460   -6.4286    0.0000 C   0  0  0  0  0  0  0  0  0  0  0  0
    5.0000   -9.9580    0.0000 C   0  0  0  0  0  0  0  0  0  0  0  0
    4.2858   -9.5449    0.0000 F   0  0  0  0  0  0  0  0  0  0  0  0
    4.9993  -10.7830    0.0000 F   0  0  0  0  0  0  0  0  0  0  0  0
    4.7871   -9.1609    0.0000 F   0  0  0  0  0  0  0  0  0  0  0  0
  2 29  1  0  0  0  0
 29 30  1  0  0  0  0
 29 31  1  0  0  0  0
 29 32  1  0  0  0  0
  3  4  2  0  0  0  0
  8 16  2  0  0  0  0
  7  8  1  0  0  0  0
 16 17  1  0  0  0  0
 17 18  2  0  0  0  0
  7  9  1  0  0  0  0
 18 19  1  0  0  0  0
  4  5  1  0  0  0  0
 19 20  2  0  0  0  0
 20  8  1  0  0  0  0
  9 10  1  0  0  0  0
 13 21  1  0  0  0  0
 10 11  1  0  0  0  0
 21 22  1  0  0  0  0
  2  3  1  0  0  0  0
 21 23  2  0  0  0  0
 22 24  1  0  0  0  0
  5  6  2  0  0  0  0
  6  1  1  0  0  0  0
  1  2  2  0  0  0  0
  5  7  1  0  0  0  0
 24 25  1  0  0  0  0
 25 26  2  0  0  0  0
 26 27  1  0  0  0  0
 27 22  2  0  0  0  0
 10 15  1  0  0  0  0
 26 28  1  0  0  0  0
 11 12  1  0  0  0  0
 12 13  1  0  0  0  0
 13 14  1  0  0  0  0
 14 15  1  0  0  0  0
M  END
> <Molecule Name>
DNDI1462996

> <CDD Number>
CDD-1535624

> <IC50_uM>
0.2 (n=1)

$$$$

SketchEl molfile

 24 26  0  0  0  0  0  0  0  0999 V2000
    7.8583   -8.3000    0.0000 C   0  0  0  0  0  0  0  0  0  0  0  0
    7.8541   -7.4750    0.0000 C   0  0  0  0  0  0  0  0  0  0  0  0
    8.5750   -8.7083    0.0000 C   0  0  0  0  0  0  0  0  0  0  0  0
    9.2791   -5.8250    0.0000 C   0  0  0  0  0  0  0  0  0  0  0  0
    8.5708   -7.0625    0.0000 C   0  0  0  0  0  0  0  0  0  0  0  0
    8.5666   -6.2417    0.0000 C   0  0  0  0  0  0  0  0  0  0  0  0
    7.1458   -8.7166    0.0000 C   0  0  0  0  0  0  0  0  0  0  0  0
    9.9958   -8.6958    0.0000 N   0  0  0  0  0  0  0  0  0  0  0  0
    9.2875   -9.9416    0.0000 N   0  0  0  0  0  0  0  0  0  0  0  0
    9.2750   -5.0000    0.0000 O   0  0  0  0  0  0  0  0  0  0  0  0
   10.0041   -9.5250    0.0000 C   0  0  0  0  0  0  0  0  0  0  0  0
    7.1458   -9.5458    0.0000 C   0  0  0  0  0  0  0  0  0  0  0  0
    6.4292   -8.3041    0.0000 C   0  0  0  0  0  0  0  0  0  0  0  0
    9.9958   -6.2375    0.0000 N   0  0  0  0  0  0  0  0  0  0  0  0
    7.8541   -9.1208    0.0000 O   0  0  0  0  0  0  0  0  0  0  0  0
    8.5750   -9.5333    0.0000 C   0  0  0  0  0  0  0  0  0  0  0  0
    9.2791   -8.2916    0.0000 C   0  0  0  0  0  0  0  0  0  0  0  0
    5.7167   -9.5458    0.0000 C   0  0  0  0  0  0  0  0  0  0  0  0
    6.4292   -9.9583    0.0000 C   0  0  0  0  0  0  0  0  0  0  0  0
    5.7167   -8.7166    0.0000 C   0  0  0  0  0  0  0  0  0  0  0  0
    5.0000   -9.9583    0.0000 Cl  0  0  0  0  0  0  0  0  0  0  0  0
    7.1417   -7.0708    0.0000 C   0  0  0  0  0  0  0  0  0  0  0  0
    7.8500   -5.8292    0.0000 C   0  0  0  0  0  0  0  0  0  0  0  0
    7.1333   -6.2500    0.0000 C   0  0  0  0  0  0  0  0  0  0  0  0
  2  1  1  0  0  0  0
  3  1  1  0  0  0  0
  4  6  1  0  0  0  0
  5  2  2  0  0  0  0
  6  5  1  0  0  0  0
  7  1  1  0  0  0  0
  8 17  2  0  0  0  0
  9 16  1  0  0  0  0
 10  4  2  0  0  0  0
 11  9  2  0  0  0  0
 12  7  1  0  0  0  0
 13  7  2  0  0  0  0
 14  4  1  0  0  0  0
 15  1  1  0  0  0  0
 16  3  2  0  0  0  0
 17  3  1  0  0  0  0
 18 20  2  0  0  0  0
 19 12  2  0  0  0  0
 20 13  1  0  0  0  0
 21 18  1  0  0  0  0
 22  2  1  0  0  0  0
 23 24  1  0  0  0  0
 24 22  2  0  0  0  0
 19 18  1  0  0  0  0
 23  6  2  0  0  0  0
  8 11  1  0  0  0  0
M  END
> <Molecule Name>
DNDI1462997

> <CDD Number>
CDD-1535625

> <IC50_uM>
0.92 (n=1)

$$$$

SketchEl molfile

 29 32  0  0  0  0  0  0  0  0999 V2000
    5.7160   -9.9519    0.0000 C   0  0  0  0  0  0  0  0  0  0  0  0
    5.7148  -10.7793    0.0000 C   0  0  0  0  0  0  0  0  0  0  0  0
    6.4296  -11.1920    0.0000 C   0  0  0  0  0  0  0  0  0  0  0  0
    7.1460  -10.7788    0.0000 C   0  0  0  0  0  0  0  0  0  0  0  0
    7.1431   -9.9483    0.0000 C   0  0  0  0  0  0  0  0  0  0  0  0
    6.4278   -9.5391    0.0000 C   0  0  0  0  0  0  0  0  0  0  0  0
    7.8561   -9.5331    0.0000 C   0  0  0  0  0  0  0  0  0  0  0  0
    8.5720   -9.9429    0.0000 C   0  0  0  0  0  0  0  0  0  0  0  0
    7.8529   -8.7082    0.0000 N   0  0  0  0  0  0  0  0  0  0  0  0
    8.5717  -10.7655    0.0000 C   0  0  0  0  0  0  0  0  0  0  0  0
    9.2869  -11.1751    0.0000 N   0  0  0  0  0  0  0  0  0  0  0  0
   10.0008  -10.7600    0.0000 C   0  0  0  0  0  0  0  0  0  0  0  0
    9.9950   -9.9308    0.0000 C   0  0  0  0  0  0  0  0  0  0  0  0
    9.2793   -9.5248    0.0000 C   0  0  0  0  0  0  0  0  0  0  0  0
    8.5670   -8.2975    0.0000 C   0  0  0  0  0  0  0  0  0  0  0  0
    8.5658   -7.4761    0.0000 C   0  0  0  0  0  0  0  0  0  0  0  0
    7.8517   -7.0624    0.0000 C   0  0  0  0  0  0  0  0  0  0  0  0
    7.1370   -7.4764    0.0000 C   0  0  0  0  0  0  0  0  0  0  0  0
    7.1365   -8.3040    0.0000 C   0  0  0  0  0  0  0  0  0  0  0  0
    7.8517   -6.2375    0.0000 N   0  0  0  0  0  0  0  0  0  0  0  0
    8.5661   -5.8250    0.0000 C   0  0  0  0  0  0  0  0  0  0  0  0
    8.5661   -5.0000    0.0000 O   0  0  0  0  0  0  0  0  0  0  0  0
    9.2806   -6.2375    0.0000 C   0  0  0  0  0  0  0  0  0  0  0  0
    9.6946   -6.9499    0.0000 C   0  0  0  0  0  0  0  0  0  0  0  0
   10.1071   -6.2356    0.0000 C   0  0  0  0  0  0  0  0  0  0  0  0
    5.0000  -11.1911    0.0000 C   0  0  0  0  0  0  0  0  0  0  0  0
    4.2859  -10.7781    0.0000 F   0  0  0  0  0  0  0  0  0  0  0  0
    4.9994  -12.0161    0.0000 F   0  0  0  0  0  0  0  0  0  0  0  0
    4.7872  -10.3941    0.0000 F   0  0  0  0  0  0  0  0  0  0  0  0
  2 26  1  0  0  0  0
 26 27  1  0  0  0  0
 26 28  1  0  0  0  0
 26 29  1  0  0  0  0
 14  8  1  0  0  0  0
  9 15  1  0  0  0  0
  5  7  1  0  0  0  0
  3  4  2  0  0  0  0
  7  8  1  0  0  0  0
  7  9  1  0  0  0  0
  9 19  1  0  0  0  0
 15 16  1  0  0  0  0
 16 17  1  0  0  0  0
 17 18  1  0  0  0  0
 18 19  1  0  0  0  0
  4  5  1  0  0  0  0
 17 20  1  0  0  0  0
  8 10  2  0  0  0  0
 20 21  1  0  0  0  0
  2  3  1  0  0  0  0
 21 22  2  0  0  0  0
 10 11  1  0  0  0  0
 21 23  1  0  0  0  0
 24 23  1  0  0  0  0
 25 24  1  0  0  0  0
 23 25  1  0  0  0  0
  5  6  2  0  0  0  0
 11 12  2  0  0  0  0
  6  1  1  0  0  0  0
 12 13  1  0  0  0  0
  1  2  2  0  0  0  0
 13 14  2  0  0  0  0
M  END
> <Molecule Name>
DNDI1462998

> <CDD Number>
CDD-1535626

> <IC50_uM>
0.072 (n=1)

$$$$

SketchEl molfile

 32 35  0  0  0  0  0  0  0  0999 V2000
    5.7159   -9.9518    0.0000 C   0  0  0  0  0  0  0  0  0  0  0  0
    5.7147  -10.7791    0.0000 C   0  0  0  0  0  0  0  0  0  0  0  0
    6.4295  -11.1919    0.0000 C   0  0  0  0  0  0  0  0  0  0  0  0
    7.1459  -10.7786    0.0000 C   0  0  0  0  0  0  0  0  0  0  0  0
    7.1430   -9.9482    0.0000 C   0  0  0  0  0  0  0  0  0  0  0  0
    6.4277   -9.5390    0.0000 C   0  0  0  0  0  0  0  0  0  0  0  0
    7.8559   -9.5330    0.0000 C   0  0  0  0  0  0  0  0  0  0  0  0
    8.5718   -9.9428    0.0000 C   0  0  0  0  0  0  0  0  0  0  0  0
    7.8528   -8.7080    0.0000 N   0  0  0  0  0  0  0  0  0  0  0  0
    8.5716  -10.7653    0.0000 C   0  0  0  0  0  0  0  0  0  0  0  0
    9.2868  -11.1750    0.0000 N   0  0  0  0  0  0  0  0  0  0  0  0
   10.0006  -10.7598    0.0000 C   0  0  0  0  0  0  0  0  0  0  0  0
    9.9948   -9.9307    0.0000 C   0  0  0  0  0  0  0  0  0  0  0  0
    9.2791   -9.5247    0.0000 C   0  0  0  0  0  0  0  0  0  0  0  0
    8.5668   -8.2974    0.0000 C   0  0  0  0  0  0  0  0  0  0  0  0
    8.5657   -7.4760    0.0000 C   0  0  0  0  0  0  0  0  0  0  0  0
    7.8516   -7.0624    0.0000 C   0  0  0  0  0  0  0  0  0  0  0  0
    7.1369   -7.4763    0.0000 C   0  0  0  0  0  0  0  0  0  0  0  0
    7.1363   -8.3039    0.0000 C   0  0  0  0  0  0  0  0  0  0  0  0
    7.8516   -6.2374    0.0000 N   0  0  0  0  0  0  0  0  0  0  0  0
    8.5660   -5.8250    0.0000 C   0  0  0  0  0  0  0  0  0  0  0  0
    8.5660   -5.0000    0.0000 O   0  0  0  0  0  0  0  0  0  0  0  0
    9.2805   -6.2374    0.0000 C   0  0  0  0  0  0  0  0  0  0  0  0
    9.3688   -7.0567    0.0000 N   0  0  0  0  0  0  0  0  0  0  0  0
   10.1757   -7.2282    0.0000 N   0  0  0  0  0  0  0  0  0  0  0  0
   10.5882   -6.5137    0.0000 C   0  0  0  0  0  0  0  0  0  0  0  0
   10.0361   -5.9008    0.0000 C   0  0  0  0  0  0  0  0  0  0  0  0
   11.4086   -6.4274    0.0000 C   0  0  0  0  0  0  0  0  0  0  0  0
    5.0000  -11.1910    0.0000 C   0  0  0  0  0  0  0  0  0  0  0  0
    4.2860  -10.7779    0.0000 F   0  0  0  0  0  0  0  0  0  0  0  0
    4.9994  -12.0159    0.0000 F   0  0  0  0  0  0  0  0  0  0  0  0
    4.7871  -10.3939    0.0000 F   0  0  0  0  0  0  0  0  0  0  0  0
  2 29  1  0  0  0  0
 29 30  1  0  0  0  0
 29 31  1  0  0  0  0
 29 32  1  0  0  0  0
  3  4  2  0  0  0  0
  7  8  1  0  0  0  0
  7  9  1  0  0  0  0
  9 19  1  0  0  0  0
 15 16  1  0  0  0  0
 16 17  1  0  0  0  0
 17 18  1  0  0  0  0
 18 19  1  0  0  0  0
  4  5  1  0  0  0  0
 17 20  1  0  0  0  0
  8 10  2  0  0  0  0
 20 21  1  0  0  0  0
  2  3  1  0  0  0  0
 21 22  2  0  0  0  0
 10 11  1  0  0  0  0
 21 23  1  0  0  0  0
 23 24  1  0  0  0  0
  5  6  2  0  0  0  0
 11 12  2  0  0  0  0
  6  1  1  0  0  0  0
 12 13  1  0  0  0  0
 24 25  1  0  0  0  0
 25 26  2  0  0  0  0
 26 27  1  0  0  0  0
 27 23  2  0  0  0  0
  1  2  2  0  0  0  0
 26 28  1  0  0  0  0
 13 14  2  0  0  0  0
 14  8  1  0  0  0  0
  9 15  1  0  0  0  0
  5  7  1  0  0  0  0
M  END
> <Molecule Name>
DNDI1464837

> <CDD Number>
CDD-1535627

> <IC50_uM>
0.048 (n=1)

$$$$

SketchEl molfile

 25 27  0  0  0  0  0  0  0  0999 V2000
    7.8563   -7.4691    0.0000 C   0  0  0  0  0  0  0  0  0  0  0  0
    8.5724   -7.8772    0.0000 C   0  0  0  0  0  0  0  0  0  0  0  0
    7.8521   -6.6447    0.0000 C   0  0  0  0  0  0  0  0  0  0  0  0
    9.2844   -9.1096    0.0000 N   0  0  0  0  0  0  0  0  0  0  0  0
    8.5724   -8.7016    0.0000 C   0  0  0  0  0  0  0  0  0  0  0  0
   10.0006   -8.6932    0.0000 C   0  0  0  0  0  0  0  0  0  0  0  0
    7.1443   -7.8855    0.0000 C   0  0  0  0  0  0  0  0  0  0  0  0
    8.5641   -5.4123    0.0000 N   0  0  0  0  0  0  0  0  0  0  0  0
    7.1318   -5.4206    0.0000 N   0  0  0  0  0  0  0  0  0  0  0  0
    7.8480   -5.0000    0.0000 C   0  0  0  0  0  0  0  0  0  0  0  0
    7.1443   -8.7141    0.0000 C   0  0  0  0  0  0  0  0  0  0  0  0
    6.4281   -7.4733    0.0000 C   0  0  0  0  0  0  0  0  0  0  0  0
    7.8521   -8.2935    0.0000 O   0  0  0  0  0  0  0  0  0  0  0  0
    7.1401   -6.2408    0.0000 C   0  0  0  0  0  0  0  0  0  0  0  0
    8.5683   -6.2325    0.0000 C   0  0  0  0  0  0  0  0  0  0  0  0
    5.7162   -8.7141    0.0000 C   0  0  0  0  0  0  0  0  0  0  0  0
    9.9923   -7.8647    0.0000 C   0  0  0  0  0  0  0  0  0  0  0  0
    6.4281   -9.1263    0.0000 C   0  0  0  0  0  0  0  0  0  0  0  0
    5.7162   -7.8896    0.0000 C   0  0  0  0  0  0  0  0  0  0  0  0
    9.2761   -7.4608    0.0000 C   0  0  0  0  0  0  0  0  0  0  0  0
    5.0000   -9.1263    0.0000 Cl  0  0  0  0  0  0  0  0  0  0  0  0
   10.7207   -9.1027    0.0000 O   0  0  0  0  0  0  0  0  0  0  0  0
   10.7261   -9.9311    0.0000 C   0  0  0  0  0  0  0  0  0  0  0  0
   11.4462  -10.3406    0.0000 C   0  0  0  0  0  0  0  0  0  0  0  0
   10.0114  -10.3500    0.0000 C   0  0  0  0  0  0  0  0  0  0  0  0
  2  1  1  0  0  0  0
  3  1  1  0  0  0  0
  4  5  1  0  0  0  0
  5  2  2  0  0  0  0
  6  4  2  0  0  0  0
  7  1  1  0  0  0  0
  8 15  1  0  0  0  0
  9 14  2  0  0  0  0
 10  9  1  0  0  0  0
 11  7  1  0  0  0  0
 12  7  2  0  0  0  0
 13  1  1  0  0  0  0
 14  3  1  0  0  0  0
 15  3  2  0  0  0  0
 16 19  2  0  0  0  0
 17 20  2  0  0  0  0
 18 11  2  0  0  0  0
 19 12  1  0  0  0  0
 20  2  1  0  0  0  0
 21 16  1  0  0  0  0
 17  6  1  0  0  0  0
 18 16  1  0  0  0  0
 10  8  2  0  0  0  0
  6 22  1  0  0  0  0
 22 23  1  0  0  0  0
 23 24  1  0  0  0  0
 23 25  1  0  0  0  0
M  END
> <Molecule Name>
DNDI1464838

> <CDD Number>
CDD-1535628

> <IC50_uM>
0.04 (n=1)

$$$$

SketchEl molfile

 27 29  0  0  0  0  0  0  0  0999 V2000
    5.7159   -9.1269    0.0000 C   0  0  0  0  0  0  0  0  0  0  0  0
    5.7148   -9.9543    0.0000 C   0  0  0  0  0  0  0  0  0  0  0  0
    6.4296  -10.3672    0.0000 C   0  0  0  0  0  0  0  0  0  0  0  0
    7.1459   -9.9538    0.0000 C   0  0  0  0  0  0  0  0  0  0  0  0
    7.1431   -9.1233    0.0000 C   0  0  0  0  0  0  0  0  0  0  0  0
    6.4278   -8.7142    0.0000 C   0  0  0  0  0  0  0  0  0  0  0  0
    7.8560   -8.7081    0.0000 C   0  0  0  0  0  0  0  0  0  0  0  0
    8.5720   -9.1179    0.0000 C   0  0  0  0  0  0  0  0  0  0  0  0
    7.8529   -7.8832    0.0000 N   0  0  0  0  0  0  0  0  0  0  0  0
    8.5718   -9.9406    0.0000 C   0  0  0  0  0  0  0  0  0  0  0  0
    9.2869  -10.3503    0.0000 N   0  0  0  0  0  0  0  0  0  0  0  0
   10.0007   -9.9350    0.0000 C   0  0  0  0  0  0  0  0  0  0  0  0
    9.9950   -9.1058    0.0000 C   0  0  0  0  0  0  0  0  0  0  0  0
    9.2793   -8.6998    0.0000 C   0  0  0  0  0  0  0  0  0  0  0  0
    8.5670   -7.4725    0.0000 C   0  0  0  0  0  0  0  0  0  0  0  0
    8.5659   -6.6511    0.0000 C   0  0  0  0  0  0  0  0  0  0  0  0
    7.8517   -6.2374    0.0000 N   0  0  0  0  0  0  0  0  0  0  0  0
    7.1369   -6.6514    0.0000 C   0  0  0  0  0  0  0  0  0  0  0  0
    7.1364   -7.4790    0.0000 C   0  0  0  0  0  0  0  0  0  0  0  0
    5.0000  -10.3662    0.0000 Cl  0  0  0  0  0  0  0  0  0  0  0  0
    6.4253   -7.8893    0.0000 F   0  0  0  0  0  0  0  0  0  0  0  0
    7.8517   -5.4124    0.0000 C   0  0  0  0  0  0  0  0  0  0  0  0
    7.1372   -5.0000    0.0000 O   0  0  0  0  0  0  0  0  0  0  0  0
    8.5662   -5.0000    0.0000 C   0  0  0  0  0  0  0  0  0  0  0  0
    9.2806   -5.4124    0.0000 F   0  0  0  0  0  0  0  0  0  0  0  0
    8.5662   -4.1750    0.0000 F   0  0  0  0  0  0  0  0  0  0  0  0
    8.7797   -5.7968    0.0000 F   0  0  0  0  0  0  0  0  0  0  0  0
 22 24  1  0  0  0  0
 24 25  1  0  0  0  0
 24 26  1  0  0  0  0
 24 27  1  0  0  0  0
  1  2  2  0  0  0  0
 13 14  2  0  0  0  0
 14  8  1  0  0  0  0
  9 15  1  0  0  0  0
  5  7  1  0  0  0  0
  3  4  2  0  0  0  0
  7  8  1  0  0  0  0
  7  9  1  0  0  0  0
  9 19  1  0  0  0  0
 15 16  1  0  0  0  0
 16 17  1  0  0  0  0
 17 18  1  0  0  0  0
 18 19  1  0  0  0  0
  4  5  1  0  0  0  0
  2 20  1  0  0  0  0
  8 10  2  0  0  0  0
  6 21  1  0  0  0  0
  2  3  1  0  0  0  0
 17 22  1  0  0  0  0
 10 11  1  0  0  0  0
 22 23  2  0  0  0  0
  5  6  2  0  0  0  0
 11 12  2  0  0  0  0
  6  1  1  0  0  0  0
 12 13  1  0  0  0  0
M  END
> <Molecule Name>
DNDI1464839

> <CDD Number>
CDD-1535629

> <IC50_uM>
0.32 (n=1)

$$$$

SketchEl molfile

 30 32  0  0  0  0  0  0  0  0999 V2000
    5.7159  -10.3644    0.0000 C   0  0  0  0  0  0  0  0  0  0  0  0
    5.7148  -11.1916    0.0000 C   0  0  0  0  0  0  0  0  0  0  0  0
    6.4295  -11.6045    0.0000 C   0  0  0  0  0  0  0  0  0  0  0  0
    7.1459  -11.1912    0.0000 C   0  0  0  0  0  0  0  0  0  0  0  0
    7.1431  -10.3607    0.0000 C   0  0  0  0  0  0  0  0  0  0  0  0
    6.4277   -9.9516    0.0000 C   0  0  0  0  0  0  0  0  0  0  0  0
    7.8560   -9.9455    0.0000 C   0  0  0  0  0  0  0  0  0  0  0  0
    8.5720  -10.3553    0.0000 C   0  0  0  0  0  0  0  0  0  0  0  0
    7.8529   -9.1205    0.0000 N   0  0  0  0  0  0  0  0  0  0  0  0
    8.5718  -11.1779    0.0000 C   0  0  0  0  0  0  0  0  0  0  0  0
    9.2868  -11.5876    0.0000 N   0  0  0  0  0  0  0  0  0  0  0  0
   10.0007  -11.1724    0.0000 C   0  0  0  0  0  0  0  0  0  0  0  0
    9.9950  -10.3432    0.0000 C   0  0  0  0  0  0  0  0  0  0  0  0
    9.2792   -9.9372    0.0000 C   0  0  0  0  0  0  0  0  0  0  0  0
    8.5670   -8.7098    0.0000 C   0  0  0  0  0  0  0  0  0  0  0  0
    8.5659   -7.8885    0.0000 C   0  0  0  0  0  0  0  0  0  0  0  0
    7.8517   -7.4749    0.0000 N   0  0  0  0  0  0  0  0  0  0  0  0
    7.1369   -7.8888    0.0000 C   0  0  0  0  0  0  0  0  0  0  0  0
    7.1364   -8.7164    0.0000 C   0  0  0  0  0  0  0  0  0  0  0  0
    7.8517   -6.6499    0.0000 C   0  0  0  0  0  0  0  0  0  0  0  0
    7.1372   -6.2374    0.0000 O   0  0  0  0  0  0  0  0  0  0  0  0
    8.5662   -6.2374    0.0000 O   0  0  0  0  0  0  0  0  0  0  0  0
    8.5662   -5.4125    0.0000 C   0  0  0  0  0  0  0  0  0  0  0  0
    9.2805   -5.0000    0.0000 C   0  0  0  0  0  0  0  0  0  0  0  0
    7.8517   -5.0000    0.0000 C   0  0  0  0  0  0  0  0  0  0  0  0
    9.3630   -5.6260    0.0000 C   0  0  0  0  0  0  0  0  0  0  0  0
    5.0000  -11.6036    0.0000 C   0  0  0  0  0  0  0  0  0  0  0  0
    4.2858  -11.1905    0.0000 F   0  0  0  0  0  0  0  0  0  0  0  0
    4.9993  -12.4286    0.0000 F   0  0  0  0  0  0  0  0  0  0  0  0
    4.7871  -10.8066    0.0000 F   0  0  0  0  0  0  0  0  0  0  0  0
  2 27  1  0  0  0  0
 27 28  1  0  0  0  0
 27 29  1  0  0  0  0
 27 30  1  0  0  0  0
  9 15  1  0  0  0  0
  5  7  1  0  0  0  0
  3  4  2  0  0  0  0
  7  8  1  0  0  0  0
  7  9  1  0  0  0  0
  9 19  1  0  0  0  0
 15 16  1  0  0  0  0
 16 17  1  0  0  0  0
 17 18  1  0  0  0  0
 18 19  1  0  0  0  0
  4  5  1  0  0  0  0
 17 20  1  0  0  0  0
  8 10  2  0  0  0  0
 20 21  2  0  0  0  0
  2  3  1  0  0  0  0
 20 22  1  0  0  0  0
 10 11  1  0  0  0  0
 22 23  1  0  0  0  0
  5  6  2  0  0  0  0
 23 24  1  0  0  0  0
 11 12  2  0  0  0  0
 23 25  1  0  0  0  0
  6  1  1  0  0  0  0
 23 26  1  0  0  0  0
 12 13  1  0  0  0  0
  1  2  2  0  0  0  0
 13 14  2  0  0  0  0
 14  8  1  0  0  0  0
M  END
> <Molecule Name>
DNDI1464840

> <CDD Number>
CDD-1535630

> <IC50_uM>
0.017 (n=1)

$$$$

SketchEl molfile

 28 30  0  0  0  0  0  0  0  0999 V2000
    7.8541   -7.4791    0.0000 N   0  0  0  0  0  0  0  0  0  0  0  0
   10.7040   -5.8249    0.0000 C   0  0  0  0  0  0  0  0  0  0  0  0
    9.9915   -6.2374    0.0000 N   0  0  0  0  0  0  0  0  0  0  0  0
   11.4206   -6.2416    0.0000 C   0  0  0  0  0  0  0  0  0  0  0  0
    7.8582   -8.3040    0.0000 C   0  0  0  0  0  0  0  0  0  0  0  0
   11.8373   -6.9499    0.0000 C   0  0  0  0  0  0  0  0  0  0  0  0
   12.2497   -6.2374    0.0000 C   0  0  0  0  0  0  0  0  0  0  0  0
    8.5665   -7.0624    0.0000 C   0  0  0  0  0  0  0  0  0  0  0  0
    8.5749   -8.7123    0.0000 C   0  0  0  0  0  0  0  0  0  0  0  0
    7.1458   -8.7207    0.0000 C   0  0  0  0  0  0  0  0  0  0  0  0
    8.5582   -6.2416    0.0000 C   0  0  0  0  0  0  0  0  0  0  0  0
    9.2790   -7.4749    0.0000 C   0  0  0  0  0  0  0  0  0  0  0  0
    9.9873   -7.0666    0.0000 C   0  0  0  0  0  0  0  0  0  0  0  0
    9.2748   -5.8291    0.0000 C   0  0  0  0  0  0  0  0  0  0  0  0
   10.7040   -5.0000    0.0000 O   0  0  0  0  0  0  0  0  0  0  0  0
    9.2873   -9.9456    0.0000 N   0  0  0  0  0  0  0  0  0  0  0  0
    7.1458   -9.5498    0.0000 C   0  0  0  0  0  0  0  0  0  0  0  0
    6.4291   -8.3082    0.0000 C   0  0  0  0  0  0  0  0  0  0  0  0
    5.7166   -9.5498    0.0000 C   0  0  0  0  0  0  0  0  0  0  0  0
    6.4291   -9.9623    0.0000 C   0  0  0  0  0  0  0  0  0  0  0  0
    5.7166   -8.7207    0.0000 C   0  0  0  0  0  0  0  0  0  0  0  0
    8.5749   -9.5373    0.0000 C   0  0  0  0  0  0  0  0  0  0  0  0
    5.0000   -9.9623    0.0000 Cl  0  0  0  0  0  0  0  0  0  0  0  0
    9.2790   -8.2957    0.0000 C   0  0  0  0  0  0  0  0  0  0  0  0
   10.0040   -9.5290    0.0000 C   0  0  0  0  0  0  0  0  0  0  0  0
    9.9957   -8.6998    0.0000 C   0  0  0  0  0  0  0  0  0  0  0  0
    6.1353   -7.1874    0.0000 Cl  0  0  0  0  0  0  0  0  0  0  0  0
    5.4208   -7.5999    0.0000 H   0  0  0  0  0  0  0  0  0  0  0  0
  2  3  1  0  0  0  0
  3 14  1  0  0  0  0
  4  2  1  0  0  0  0
  5  1  1  0  0  0  0
  6  4  1  0  0  0  0
  7  4  1  0  0  0  0
  8  1  1  0  0  0  0
  9  5  1  0  0  0  0
 10  5  1  0  0  0  0
 11  8  1  0  0  0  0
 12  8  1  0  0  0  0
 13 12  1  0  0  0  0
 14 11  1  0  0  0  0
 15  2  2  0  0  0  0
 16 22  1  0  0  0  0
 17 10  1  0  0  0  0
 18 10  2  0  0  0  0
 19 21  2  0  0  0  0
 20 17  2  0  0  0  0
 21 18  1  0  0  0  0
 22  9  2  0  0  0  0
 23 19  1  0  0  0  0
 24  9  1  0  0  0  0
 25 16  2  0  0  0  0
 26 24  2  0  0  0  0
  3 13  1  0  0  0  0
 26 25  1  0  0  0  0
 20 19  1  0  0  0  0
  6  7  1  0  0  0  0
 28 27  1  0  0  0  0
M  END
> <Molecule Name>
DNDI1464841

> <CDD Number>
CDD-1535631

> <IC50_uM>
0.11 (n=1)

$$$$

SketchEl molfile

 30 33  0  0  0  0  0  0  0  0999 V2000
    8.5717   -8.7092    0.0000 N   0  0  0  0  0  0  0  0  0  0  0  0
    9.2843   -5.8252    0.0000 C   0  0  0  0  0  0  0  0  0  0  0  0
    5.0000  -11.5974    0.0000 N   0  0  0  0  0  0  0  0  0  0  0  0
    8.5717   -6.2378    0.0000 N   0  0  0  0  0  0  0  0  0  0  0  0
    8.5758   -9.5344    0.0000 C   0  0  0  0  0  0  0  0  0  0  0  0
    5.7168  -11.1931    0.0000 C   0  0  0  0  0  0  0  0  0  0  0  0
    9.2927   -9.9429    0.0000 C   0  0  0  0  0  0  0  0  0  0  0  0
    7.8632   -9.9512    0.0000 C   0  0  0  0  0  0  0  0  0  0  0  0
    9.2843   -8.2966    0.0000 C   0  0  0  0  0  0  0  0  0  0  0  0
    7.8548   -8.3050    0.0000 C   0  0  0  0  0  0  0  0  0  0  0  0
    9.2843   -5.0000    0.0000 O   0  0  0  0  0  0  0  0  0  0  0  0
   10.0012   -6.2378    0.0000 C   0  0  0  0  0  0  0  0  0  0  0  0
   10.0053  -11.1765    0.0000 N   0  0  0  0  0  0  0  0  0  0  0  0
    8.5717   -7.0630    0.0000 C   0  0  0  0  0  0  0  0  0  0  0  0
    7.8548   -7.4756    0.0000 C   0  0  0  0  0  0  0  0  0  0  0  0
    9.2843   -7.4756    0.0000 C   0  0  0  0  0  0  0  0  0  0  0  0
    7.1463   -9.5386    0.0000 C   0  0  0  0  0  0  0  0  0  0  0  0
    7.8632  -10.7805    0.0000 C   0  0  0  0  0  0  0  0  0  0  0  0
    6.4337  -10.7805    0.0000 C   0  0  0  0  0  0  0  0  0  0  0  0
    6.4337   -9.9554    0.0000 C   0  0  0  0  0  0  0  0  0  0  0  0
    7.1463  -11.1931    0.0000 C   0  0  0  0  0  0  0  0  0  0  0  0
    9.2927  -10.7680    0.0000 C   0  0  0  0  0  0  0  0  0  0  0  0
    9.9970   -9.5261    0.0000 C   0  0  0  0  0  0  0  0  0  0  0  0
   10.7222  -10.7597    0.0000 C   0  0  0  0  0  0  0  0  0  0  0  0
    9.9970   -7.0630    0.0000 C   0  0  0  0  0  0  0  0  0  0  0  0
   10.7097   -5.8252    0.0000 C   0  0  0  0  0  0  0  0  0  0  0  0
   10.7138   -9.9303    0.0000 C   0  0  0  0  0  0  0  0  0  0  0  0
   11.4223   -6.2337    0.0000 C   0  0  0  0  0  0  0  0  0  0  0  0
   10.7097   -7.4756    0.0000 C   0  0  0  0  0  0  0  0  0  0  0  0
   11.4265   -7.0630    0.0000 C   0  0  0  0  0  0  0  0  0  0  0  0
  2  4  1  0  0  0  0
  3  6  3  0  0  0  0
  4 14  1  0  0  0  0
  5  1  1  0  0  0  0
  6 19  1  0  0  0  0
  7  5  1  0  0  0  0
  8  5  1  0  0  0  0
  9  1  1  0  0  0  0
 10  1  1  0  0  0  0
 11  2  2  0  0  0  0
 12  2  1  0  0  0  0
 13 22  1  0  0  0  0
 14 15  1  0  0  0  0
 15 10  1  0  0  0  0
 16  9  1  0  0  0  0
 17  8  2  0  0  0  0
 18  8  1  0  0  0  0
 19 20  2  0  0  0  0
 20 17  1  0  0  0  0
 21 18  2  0  0  0  0
 22  7  2  0  0  0  0
 23  7  1  0  0  0  0
 24 27  1  0  0  0  0
 25 12  2  0  0  0  0
 26 12  1  0  0  0  0
 27 23  2  0  0  0  0
 28 26  2  0  0  0  0
 29 25  1  0  0  0  0
 30 28  1  0  0  0  0
 14 16  1  0  0  0  0
 21 19  1  0  0  0  0
 24 13  2  0  0  0  0
 30 29  2  0  0  0  0
M  END
> <Molecule Name>
DNDI1464842

> <CDD Number>
CDD-1535632

> <IC50_uM>
0.024 ร/รท 1.0 (n=2)

$$$$

SketchEl molfile

 26 28  0  0  0  0  0  0  0  0999 V2000
    9.2832   -5.8250    0.0000 S   0  0  0  0  0  0  0  0  0  0  0  0
    8.5707   -8.7082    0.0000 N   0  0  0  0  0  0  0  0  0  0  0  0
    5.0000  -11.5998    0.0000 N   0  0  0  0  0  0  0  0  0  0  0  0
    8.5707   -6.2375    0.0000 N   0  0  0  0  0  0  0  0  0  0  0  0
    8.5749   -9.5332    0.0000 C   0  0  0  0  0  0  0  0  0  0  0  0
    5.7166  -11.1915    0.0000 C   0  0  0  0  0  0  0  0  0  0  0  0
    9.2832   -5.0000    0.0000 O   0  0  0  0  0  0  0  0  0  0  0  0
    9.2749   -6.6499    0.0000 O   0  0  0  0  0  0  0  0  0  0  0  0
    9.2915   -9.9415    0.0000 C   0  0  0  0  0  0  0  0  0  0  0  0
    7.8624   -9.9498    0.0000 C   0  0  0  0  0  0  0  0  0  0  0  0
    9.2832   -8.2957    0.0000 C   0  0  0  0  0  0  0  0  0  0  0  0
    7.8541   -8.3041    0.0000 C   0  0  0  0  0  0  0  0  0  0  0  0
   10.0040  -11.1748    0.0000 N   0  0  0  0  0  0  0  0  0  0  0  0
    7.8541   -7.4749    0.0000 C   0  0  0  0  0  0  0  0  0  0  0  0
    9.2832   -7.4749    0.0000 C   0  0  0  0  0  0  0  0  0  0  0  0
    8.5707   -7.0624    0.0000 C   0  0  0  0  0  0  0  0  0  0  0  0
    7.1458   -9.5374    0.0000 C   0  0  0  0  0  0  0  0  0  0  0  0
    7.8624  -10.7790    0.0000 C   0  0  0  0  0  0  0  0  0  0  0  0
    6.4333  -10.7790    0.0000 C   0  0  0  0  0  0  0  0  0  0  0  0
   10.1082   -5.8250    0.0000 C   0  0  0  0  0  0  0  0  0  0  0  0
    7.1458  -11.1915    0.0000 C   0  0  0  0  0  0  0  0  0  0  0  0
    6.4333   -9.9498    0.0000 C   0  0  0  0  0  0  0  0  0  0  0  0
    9.2915  -10.7665    0.0000 C   0  0  0  0  0  0  0  0  0  0  0  0
    9.9957   -9.5249    0.0000 C   0  0  0  0  0  0  0  0  0  0  0  0
   10.7207  -10.7582    0.0000 C   0  0  0  0  0  0  0  0  0  0  0  0
   10.7123   -9.9290    0.0000 C   0  0  0  0  0  0  0  0  0  0  0  0
  2 12  1  0  0  0  0
  3  6  3  0  0  0  0
  4  1  1  0  0  0  0
  5  2  1  0  0  0  0
  6 19  1  0  0  0  0
  7  1  2  0  0  0  0
  8  1  2  0  0  0  0
  9  5  1  0  0  0  0
 10  5  1  0  0  0  0
 11 15  1  0  0  0  0
 12 14  1  0  0  0  0
 13 23  1  0  0  0  0
 14 16  1  0  0  0  0
 15 16  1  0  0  0  0
 16  4  1  0  0  0  0
 17 10  2  0  0  0  0
 18 10  1  0  0  0  0
 19 22  2  0  0  0  0
 20  1  1  0  0  0  0
 21 18  2  0  0  0  0
 22 17  1  0  0  0  0
 23  9  2  0  0  0  0
 24  9  1  0  0  0  0
 25 13  2  0  0  0  0
 26 24  2  0  0  0  0
 11  2  1  0  0  0  0
 26 25  1  0  0  0  0
 21 19  1  0  0  0  0
M  END
> <Molecule Name>
DNDI1464843

> <CDD Number>
CDD-1535633

> <IC50_uM>
0.6 (n=1)

$$$$

SketchEl molfile

 29 31  0  0  0  0  0  0  0  0999 V2000
    9.2885   -5.8252    0.0000 C   0  0  0  0  0  0  0  0  0  0  0  0
    8.5759   -8.7092    0.0000 N   0  0  0  0  0  0  0  0  0  0  0  0
    8.5759   -6.2378    0.0000 N   0  0  0  0  0  0  0  0  0  0  0  0
    5.0000  -11.6016    0.0000 N   0  0  0  0  0  0  0  0  0  0  0  0
    8.5800   -9.5344    0.0000 C   0  0  0  0  0  0  0  0  0  0  0  0
    5.7210  -11.1932    0.0000 C   0  0  0  0  0  0  0  0  0  0  0  0
   10.0054   -6.2378    0.0000 N   0  0  0  0  0  0  0  0  0  0  0  0
    9.2969   -9.9429    0.0000 C   0  0  0  0  0  0  0  0  0  0  0  0
    9.2885   -5.0000    0.0000 O   0  0  0  0  0  0  0  0  0  0  0  0
    7.8674   -9.9512    0.0000 C   0  0  0  0  0  0  0  0  0  0  0  0
    9.2885   -8.2966    0.0000 C   0  0  0  0  0  0  0  0  0  0  0  0
    7.8590   -8.3050    0.0000 C   0  0  0  0  0  0  0  0  0  0  0  0
   10.0095  -11.1765    0.0000 N   0  0  0  0  0  0  0  0  0  0  0  0
    8.5759   -7.0630    0.0000 C   0  0  0  0  0  0  0  0  0  0  0  0
    7.8590   -7.4756    0.0000 C   0  0  0  0  0  0  0  0  0  0  0  0
    9.2885   -7.4756    0.0000 C   0  0  0  0  0  0  0  0  0  0  0  0
    7.1505   -9.5386    0.0000 C   0  0  0  0  0  0  0  0  0  0  0  0
    7.8674  -10.7806    0.0000 C   0  0  0  0  0  0  0  0  0  0  0  0
    6.4378  -10.7806    0.0000 C   0  0  0  0  0  0  0  0  0  0  0  0
    6.4378   -9.9512    0.0000 C   0  0  0  0  0  0  0  0  0  0  0  0
    7.1505  -11.1932    0.0000 C   0  0  0  0  0  0  0  0  0  0  0  0
    9.2969  -10.7681    0.0000 C   0  0  0  0  0  0  0  0  0  0  0  0
   10.0054   -7.0630    0.0000 C   0  0  0  0  0  0  0  0  0  0  0  0
   10.7180   -5.8252    0.0000 C   0  0  0  0  0  0  0  0  0  0  0  0
   10.0012   -9.5261    0.0000 C   0  0  0  0  0  0  0  0  0  0  0  0
   10.7264  -10.7597    0.0000 C   0  0  0  0  0  0  0  0  0  0  0  0
   10.7180   -9.9304    0.0000 C   0  0  0  0  0  0  0  0  0  0  0  0
   11.4265   -6.2378    0.0000 C   0  0  0  0  0  0  0  0  0  0  0  0
   10.7139   -7.4756    0.0000 C   0  0  0  0  0  0  0  0  0  0  0  0
  2 12  1  0  0  0  0
  3  1  1  0  0  0  0
  4  6  3  0  0  0  0
  5  2  1  0  0  0  0
  6 19  1  0  0  0  0
  7  1  1  0  0  0  0
  8  5  1  0  0  0  0
  9  1  2  0  0  0  0
 10  5  1  0  0  0  0
 11 16  1  0  0  0  0
 12 15  1  0  0  0  0
 13 22  1  0  0  0  0
 14  3  1  0  0  0  0
 15 14  1  0  0  0  0
 16 14  1  0  0  0  0
 17 10  2  0  0  0  0
 18 10  1  0  0  0  0
 19 20  2  0  0  0  0
 20 17  1  0  0  0  0
 21 18  2  0  0  0  0
 22  8  2  0  0  0  0
 23  7  1  0  0  0  0
 24  7  1  0  0  0  0
 25  8  1  0  0  0  0
 26 13  2  0  0  0  0
 27 25  2  0  0  0  0
 28 24  1  0  0  0  0
 29 23  1  0  0  0  0
 11  2  1  0  0  0  0
 27 26  1  0  0  0  0
 21 19  1  0  0  0  0
M  END
> <Molecule Name>
DNDI1464844

> <CDD Number>
CDD-1535634

> <IC50_uM>
0.028 (n=1)

$$$$

SketchEl molfile

 31 34  0  0  0  0  0  0  0  0999 V2000
    9.2829   -6.2374    0.0000 C   0  0  0  0  0  0  0  0  0  0  0  0
    8.5705   -9.1204    0.0000 N   0  0  0  0  0  0  0  0  0  0  0  0
    5.0000  -12.0118    0.0000 N   0  0  0  0  0  0  0  0  0  0  0  0
    8.5746   -9.9453    0.0000 C   0  0  0  0  0  0  0  0  0  0  0  0
    5.7166  -11.6035    0.0000 C   0  0  0  0  0  0  0  0  0  0  0  0
    9.9995   -6.6498    0.0000 N   0  0  0  0  0  0  0  0  0  0  0  0
    8.5705   -6.6498    0.0000 N   0  0  0  0  0  0  0  0  0  0  0  0
    9.2912  -10.3536    0.0000 C   0  0  0  0  0  0  0  0  0  0  0  0
    7.8622  -10.3620    0.0000 C   0  0  0  0  0  0  0  0  0  0  0  0
    7.8539   -8.7163    0.0000 C   0  0  0  0  0  0  0  0  0  0  0  0
    9.2829   -8.7080    0.0000 C   0  0  0  0  0  0  0  0  0  0  0  0
    9.2829   -5.4125    0.0000 O   0  0  0  0  0  0  0  0  0  0  0  0
   10.0037  -11.5868    0.0000 N   0  0  0  0  0  0  0  0  0  0  0  0
    7.8539   -7.8872    0.0000 C   0  0  0  0  0  0  0  0  0  0  0  0
    9.2829   -7.8872    0.0000 C   0  0  0  0  0  0  0  0  0  0  0  0
    7.8622  -11.1910    0.0000 C   0  0  0  0  0  0  0  0  0  0  0  0
    7.1456   -9.9495    0.0000 C   0  0  0  0  0  0  0  0  0  0  0  0
    8.5705   -7.4748    0.0000 C   0  0  0  0  0  0  0  0  0  0  0  0
    6.4332  -11.1910    0.0000 C   0  0  0  0  0  0  0  0  0  0  0  0
   10.7119   -6.2374    0.0000 C   0  0  0  0  0  0  0  0  0  0  0  0
    7.1456  -11.6035    0.0000 C   0  0  0  0  0  0  0  0  0  0  0  0
    6.4332  -10.3620    0.0000 C   0  0  0  0  0  0  0  0  0  0  0  0
    9.2912  -11.1785    0.0000 C   0  0  0  0  0  0  0  0  0  0  0  0
    9.9953   -9.9370    0.0000 C   0  0  0  0  0  0  0  0  0  0  0  0
   10.7203  -11.1702    0.0000 C   0  0  0  0  0  0  0  0  0  0  0  0
   11.4244   -6.6498    0.0000 C   0  0  0  0  0  0  0  0  0  0  0  0
   10.7078   -5.4166    0.0000 C   0  0  0  0  0  0  0  0  0  0  0  0
   10.7119  -10.3411    0.0000 C   0  0  0  0  0  0  0  0  0  0  0  0
   11.4202   -5.0000    0.0000 C   0  0  0  0  0  0  0  0  0  0  0  0
   12.1410   -6.2374    0.0000 C   0  0  0  0  0  0  0  0  0  0  0  0
   12.1410   -5.4125    0.0000 C   0  0  0  0  0  0  0  0  0  0  0  0
  2 10  1  0  0  0  0
  3  5  3  0  0  0  0
  4  2  1  0  0  0  0
  5 19  1  0  0  0  0
  6  1  1  0  0  0  0
  7  1  1  0  0  0  0
  8  4  1  0  0  0  0
  9  4  1  0  0  0  0
 10 14  1  0  0  0  0
 11 15  1  0  0  0  0
 12  1  2  0  0  0  0
 13 23  1  0  0  0  0
 14 18  1  0  0  0  0
 15 18  1  0  0  0  0
 16  9  1  0  0  0  0
 17  9  2  0  0  0  0
 18  7  1  0  0  0  0
 19 22  2  0  0  0  0
 20  6  1  0  0  0  0
 21 16  2  0  0  0  0
 22 17  1  0  0  0  0
 23  8  2  0  0  0  0
 24  8  1  0  0  0  0
 25 28  1  0  0  0  0
 26 20  2  0  0  0  0
 27 20  1  0  0  0  0
 28 24  2  0  0  0  0
 29 27  2  0  0  0  0
 30 26  1  0  0  0  0
 31 29  1  0  0  0  0
 11  2  1  0  0  0  0
 31 30  2  0  0  0  0
 21 19  1  0  0  0  0
 25 13  2  0  0  0  0
M  END
> <Molecule Name>
DNDI1464845

> <CDD Number>
CDD-1535635

> <IC50_uM>
0.029 (n=1)

$$$$

SketchEl molfile

 34 38  0  0  0  0  0  0  0  0999 V2000
    9.2877   -7.4793    0.0000 N   0  0  0  0  0  0  0  0  0  0  0  0
    8.5710   -7.0709    0.0000 C   0  0  0  0  0  0  0  0  0  0  0  0
   12.1378   -5.8250    0.0000 C   0  0  0  0  0  0  0  0  0  0  0  0
   11.4252   -6.2376    0.0000 N   0  0  0  0  0  0  0  0  0  0  0  0
    8.5668   -6.2459    0.0000 C   0  0  0  0  0  0  0  0  0  0  0  0
   12.8545   -6.2376    0.0000 C   0  0  0  0  0  0  0  0  0  0  0  0
    9.2918   -8.3043    0.0000 C   0  0  0  0  0  0  0  0  0  0  0  0
    8.9751   -5.5334    0.0000 C   0  0  0  0  0  0  0  0  0  0  0  0
    8.1501   -5.5334    0.0000 C   0  0  0  0  0  0  0  0  0  0  0  0
   13.2711   -6.9501    0.0000 C   0  0  0  0  0  0  0  0  0  0  0  0
   13.6837   -6.2376    0.0000 C   0  0  0  0  0  0  0  0  0  0  0  0
   10.0002   -7.0626    0.0000 C   0  0  0  0  0  0  0  0  0  0  0  0
   10.0085   -8.7127    0.0000 C   0  0  0  0  0  0  0  0  0  0  0  0
    8.5793   -8.7210    0.0000 C   0  0  0  0  0  0  0  0  0  0  0  0
   10.7127   -7.4751    0.0000 C   0  0  0  0  0  0  0  0  0  0  0  0
    9.9918   -6.2417    0.0000 C   0  0  0  0  0  0  0  0  0  0  0  0
   10.7085   -5.8292    0.0000 C   0  0  0  0  0  0  0  0  0  0  0  0
   11.4211   -7.0668    0.0000 C   0  0  0  0  0  0  0  0  0  0  0  0
    7.8584   -7.4834    0.0000 O   0  0  0  0  0  0  0  0  0  0  0  0
   12.1378   -5.0000    0.0000 O   0  0  0  0  0  0  0  0  0  0  0  0
   10.7210   -9.9460    0.0000 N   0  0  0  0  0  0  0  0  0  0  0  0
    8.5793   -9.5502    0.0000 C   0  0  0  0  0  0  0  0  0  0  0  0
    7.8626   -8.3085    0.0000 C   0  0  0  0  0  0  0  0  0  0  0  0
    6.4334   -9.9627    0.0000 O   0  0  0  0  0  0  0  0  0  0  0  0
    7.1501   -9.5502    0.0000 C   0  0  0  0  0  0  0  0  0  0  0  0
    7.1501   -8.7252    0.0000 C   0  0  0  0  0  0  0  0  0  0  0  0
    7.8626   -9.9627    0.0000 C   0  0  0  0  0  0  0  0  0  0  0  0
   10.0085   -9.5377    0.0000 C   0  0  0  0  0  0  0  0  0  0  0  0
   10.7127   -8.2960    0.0000 C   0  0  0  0  0  0  0  0  0  0  0  0
    5.7125   -9.5502    0.0000 C   0  0  0  0  0  0  0  0  0  0  0  0
   11.4377   -9.5294    0.0000 C   0  0  0  0  0  0  0  0  0  0  0  0
    5.0000   -9.9627    0.0000 C   0  0  0  0  0  0  0  0  0  0  0  0
   11.4294   -8.7002    0.0000 C   0  0  0  0  0  0  0  0  0  0  0  0
    5.7125   -8.7252    0.0000 C   0  0  0  0  0  0  0  0  0  0  0  0
  2  1  1  0  0  0  0
  3  4  1  0  0  0  0
  4 17  1  0  0  0  0
  5  2  1  0  0  0  0
  6  3  1  0  0  0  0
  7  1  1  0  0  0  0
  8  5  1  0  0  0  0
  9  5  1  0  0  0  0
 10  6  1  0  0  0  0
 11  6  1  0  0  0  0
 12  1  1  0  0  0  0
 13  7  1  0  0  0  0
 14  7  1  0  0  0  0
 15 12  1  0  0  0  0
 16 12  1  0  0  0  0
 17 16  1  0  0  0  0
 18 15  1  0  0  0  0
 19  2  2  0  0  0  0
 20  3  2  0  0  0  0
 21 28  1  0  0  0  0
 22 14  1  0  0  0  0
 23 14  2  0  0  0  0
 24 25  1  0  0  0  0
 25 26  2  0  0  0  0
 26 23  1  0  0  0  0
 27 22  2  0  0  0  0
 28 13  2  0  0  0  0
 29 13  1  0  0  0  0
 30 24  1  0  0  0  0
 31 33  1  0  0  0  0
 32 30  1  0  0  0  0
 33 29  2  0  0  0  0
 34 30  1  0  0  0  0
  8  9  1  0  0  0  0
  4 18  1  0  0  0  0
 27 25  1  0  0  0  0
 31 21  2  0  0  0  0
 10 11  1  0  0  0  0
M  END
> <Molecule Name>
DNDI1464846

> <CDD Number>
CDD-1535636

> <IC50_uM>
> 1.0 (n=1)

$$$$

SketchEl molfile

 33 36  0  0  0  0  0  0  0  0999 V2000
    5.7159  -10.3739    0.0000 C   0  0  0  0  0  0  0  0  0  0  0  0
    5.7147  -11.2012    0.0000 C   0  0  0  0  0  0  0  0  0  0  0  0
    6.4295  -11.6139    0.0000 C   0  0  0  0  0  0  0  0  0  0  0  0
    7.1458  -11.2007    0.0000 C   0  0  0  0  0  0  0  0  0  0  0  0
    7.1429  -10.3703    0.0000 C   0  0  0  0  0  0  0  0  0  0  0  0
    6.4277   -9.9612    0.0000 C   0  0  0  0  0  0  0  0  0  0  0  0
    7.8558   -9.9552    0.0000 C   0  0  0  0  0  0  0  0  0  0  0  0
    8.5717  -10.3649    0.0000 C   0  0  0  0  0  0  0  0  0  0  0  0
    7.8526   -9.1303    0.0000 N   0  0  0  0  0  0  0  0  0  0  0  0
    8.5714  -11.1874    0.0000 C   0  0  0  0  0  0  0  0  0  0  0  0
    9.2865  -11.5970    0.0000 N   0  0  0  0  0  0  0  0  0  0  0  0
   10.0003  -11.1819    0.0000 C   0  0  0  0  0  0  0  0  0  0  0  0
    9.9945  -10.3528    0.0000 C   0  0  0  0  0  0  0  0  0  0  0  0
    9.2789   -9.9469    0.0000 C   0  0  0  0  0  0  0  0  0  0  0  0
    8.5667   -8.7196    0.0000 C   0  0  0  0  0  0  0  0  0  0  0  0
    8.5655   -7.8983    0.0000 C   0  0  0  0  0  0  0  0  0  0  0  0
    7.8514   -7.4847    0.0000 C   0  0  0  0  0  0  0  0  0  0  0  0
    7.1368   -7.8986    0.0000 C   0  0  0  0  0  0  0  0  0  0  0  0
    7.1363   -8.7261    0.0000 C   0  0  0  0  0  0  0  0  0  0  0  0
    7.8514   -6.6598    0.0000 N   0  0  0  0  0  0  0  0  0  0  0  0
    8.5658   -6.2474    0.0000 C   0  0  0  0  0  0  0  0  0  0  0  0
    8.5658   -5.4225    0.0000 O   0  0  0  0  0  0  0  0  0  0  0  0
    9.2802   -6.6598    0.0000 N   0  0  0  0  0  0  0  0  0  0  0  0
    9.9917   -6.2412    0.0000 C   0  0  0  0  0  0  0  0  0  0  0  0
   10.7096   -6.6510    0.0000 C   0  0  0  0  0  0  0  0  0  0  0  0
   11.4207   -6.2331    0.0000 C   0  0  0  0  0  0  0  0  0  0  0  0
   11.4143   -5.4066    0.0000 C   0  0  0  0  0  0  0  0  0  0  0  0
   10.6910   -5.0000    0.0000 C   0  0  0  0  0  0  0  0  0  0  0  0
    9.9829   -5.4203    0.0000 C   0  0  0  0  0  0  0  0  0  0  0  0
    5.0000  -11.6130    0.0000 C   0  0  0  0  0  0  0  0  0  0  0  0
    4.2860  -11.2000    0.0000 F   0  0  0  0  0  0  0  0  0  0  0  0
    4.9994  -12.4379    0.0000 F   0  0  0  0  0  0  0  0  0  0  0  0
    4.7872  -10.8160    0.0000 F   0  0  0  0  0  0  0  0  0  0  0  0
  2 30  1  0  0  0  0
 30 31  1  0  0  0  0
 30 32  1  0  0  0  0
 30 33  1  0  0  0  0
  7  8  1  0  0  0  0
  7  9  1  0  0  0  0
  9 19  1  0  0  0  0
 15 16  1  0  0  0  0
 16 17  1  0  0  0  0
 17 18  1  0  0  0  0
 18 19  1  0  0  0  0
  4  5  1  0  0  0  0
 17 20  1  0  0  0  0
  8 10  2  0  0  0  0
 20 21  1  0  0  0  0
  2  3  1  0  0  0  0
 21 22  2  0  0  0  0
 10 11  1  0  0  0  0
 21 23  1  0  0  0  0
  5  6  2  0  0  0  0
 23 24  1  0  0  0  0
 11 12  2  0  0  0  0
 24 25  2  0  0  0  0
  6  1  1  0  0  0  0
 25 26  1  0  0  0  0
 12 13  1  0  0  0  0
 26 27  2  0  0  0  0
  1  2  2  0  0  0  0
 27 28  1  0  0  0  0
 13 14  2  0  0  0  0
 28 29  2  0  0  0  0
 29 24  1  0  0  0  0
 14  8  1  0  0  0  0
  9 15  1  0  0  0  0
  5  7  1  0  0  0  0
  3  4  2  0  0  0  0
M  END
> <Molecule Name>
DNDI1464847

> <CDD Number>
CDD-1535637

> <IC50_uM>
0.014 (n=1)

$$$$

SketchEl molfile

 28 30  0  0  0  0  0  0  0  0999 V2000
    5.7160   -9.9529    0.0000 C   0  0  0  0  0  0  0  0  0  0  0  0
    5.7149  -10.7805    0.0000 C   0  0  0  0  0  0  0  0  0  0  0  0
    6.4298  -11.1935    0.0000 C   0  0  0  0  0  0  0  0  0  0  0  0
    7.1464  -10.7800    0.0000 C   0  0  0  0  0  0  0  0  0  0  0  0
    7.1436   -9.9493    0.0000 C   0  0  0  0  0  0  0  0  0  0  0  0
    6.4280   -9.5402    0.0000 C   0  0  0  0  0  0  0  0  0  0  0  0
    7.8566   -9.5341    0.0000 C   0  0  0  0  0  0  0  0  0  0  0  0
    8.5727   -9.9439    0.0000 C   0  0  0  0  0  0  0  0  0  0  0  0
    7.8535   -8.7089    0.0000 N   0  0  0  0  0  0  0  0  0  0  0  0
    8.5725  -10.7668    0.0000 C   0  0  0  0  0  0  0  0  0  0  0  0
    9.2877  -11.1766    0.0000 N   0  0  0  0  0  0  0  0  0  0  0  0
   10.0018  -10.7612    0.0000 C   0  0  0  0  0  0  0  0  0  0  0  0
    9.9961   -9.9318    0.0000 C   0  0  0  0  0  0  0  0  0  0  0  0
    9.2801   -9.5258    0.0000 C   0  0  0  0  0  0  0  0  0  0  0  0
    8.5677   -8.2982    0.0000 C   0  0  0  0  0  0  0  0  0  0  0  0
    8.5666   -7.4766    0.0000 C   0  0  0  0  0  0  0  0  0  0  0  0
    7.8523   -7.0628    0.0000 C   0  0  0  0  0  0  0  0  0  0  0  0
    7.1374   -7.4769    0.0000 C   0  0  0  0  0  0  0  0  0  0  0  0
    7.1369   -8.3047    0.0000 C   0  0  0  0  0  0  0  0  0  0  0  0
    7.8523   -6.2377    0.0000 N   0  0  0  0  0  0  0  0  0  0  0  0
    8.5669   -5.8251    0.0000 S   0  0  0  0  0  0  0  0  0  0  0  0
    8.5669   -5.0000    0.0000 O   0  0  0  0  0  0  0  0  0  0  0  0
    9.3890   -5.8231    0.0000 C   0  0  0  0  0  0  0  0  0  0  0  0
    8.5596   -6.6483    0.0000 O   0  0  0  0  0  0  0  0  0  0  0  0
    5.0000  -11.1925    0.0000 C   0  0  0  0  0  0  0  0  0  0  0  0
    4.2857  -10.7794    0.0000 F   0  0  0  0  0  0  0  0  0  0  0  0
    4.9993  -12.0176    0.0000 F   0  0  0  0  0  0  0  0  0  0  0  0
    4.7871  -10.3953    0.0000 F   0  0  0  0  0  0  0  0  0  0  0  0
  2 25  1  0  0  0  0
 25 26  1  0  0  0  0
 25 27  1  0  0  0  0
 25 28  1  0  0  0  0
 13 14  2  0  0  0  0
 14  8  1  0  0  0  0
  9 15  1  0  0  0  0
  5  7  1  0  0  0  0
  3  4  2  0  0  0  0
  7  8  1  0  0  0  0
  7  9  1  0  0  0  0
  9 19  1  0  0  0  0
 15 16  1  0  0  0  0
 16 17  1  0  0  0  0
 17 18  1  0  0  0  0
 18 19  1  0  0  0  0
  4  5  1  0  0  0  0
 17 20  1  0  0  0  0
  8 10  2  0  0  0  0
 20 21  1  0  0  0  0
  2  3  1  0  0  0  0
 21 22  2  0  0  0  0
 10 11  1  0  0  0  0
 21 23  1  0  0  0  0
  5  6  2  0  0  0  0
 21 24  2  0  0  0  0
 11 12  2  0  0  0  0
  6  1  1  0  0  0  0
 12 13  1  0  0  0  0
  1  2  2  0  0  0  0
M  END
> <Molecule Name>
DNDI1464848

> <CDD Number>
CDD-1535638

> <IC50_uM>
0.05 (n=1)

$$$$

SketchEl molfile

 27 30  0  0  0  0  0  0  0  0999 V2000
    7.1459   -9.9501    0.0000 C   0  0  0  0  0  0  0  0  0  0  0  0
    8.5668   -5.8250    0.0000 C   0  0  0  0  0  0  0  0  0  0  0  0
    7.8542   -8.7084    0.0000 N   0  0  0  0  0  0  0  0  0  0  0  0
    7.8584   -9.5334    0.0000 C   0  0  0  0  0  0  0  0  0  0  0  0
    9.2835   -6.2375    0.0000 C   0  0  0  0  0  0  0  0  0  0  0  0
    6.4292   -9.5376    0.0000 C   0  0  0  0  0  0  0  0  0  0  0  0
    9.6960   -6.9500    0.0000 C   0  0  0  0  0  0  0  0  0  0  0  0
   10.1085   -6.2375    0.0000 C   0  0  0  0  0  0  0  0  0  0  0  0
    7.8542   -6.2375    0.0000 N   0  0  0  0  0  0  0  0  0  0  0  0
    7.1459  -10.7793    0.0000 C   0  0  0  0  0  0  0  0  0  0  0  0
    5.7167   -9.9501    0.0000 C   0  0  0  0  0  0  0  0  0  0  0  0
    8.5751   -9.9418    0.0000 C   0  0  0  0  0  0  0  0  0  0  0  0
    7.1376   -8.3042    0.0000 C   0  0  0  0  0  0  0  0  0  0  0  0
    8.5668   -8.2959    0.0000 C   0  0  0  0  0  0  0  0  0  0  0  0
    8.5668   -5.0000    0.0000 O   0  0  0  0  0  0  0  0  0  0  0  0
    9.2876  -11.1751    0.0000 N   0  0  0  0  0  0  0  0  0  0  0  0
    7.8542   -7.0625    0.0000 C   0  0  0  0  0  0  0  0  0  0  0  0
    7.1376   -7.4750    0.0000 C   0  0  0  0  0  0  0  0  0  0  0  0
    8.5668   -7.4750    0.0000 C   0  0  0  0  0  0  0  0  0  0  0  0
    5.7167  -10.7793    0.0000 C   0  0  0  0  0  0  0  0  0  0  0  0
    6.4250   -8.7126    0.0000 F   0  0  0  0  0  0  0  0  0  0  0  0
    6.4292  -11.1918    0.0000 C   0  0  0  0  0  0  0  0  0  0  0  0
    5.0000  -11.1918    0.0000 Cl  0  0  0  0  0  0  0  0  0  0  0  0
    8.5751  -10.7668    0.0000 C   0  0  0  0  0  0  0  0  0  0  0  0
    9.2793   -9.5251    0.0000 C   0  0  0  0  0  0  0  0  0  0  0  0
   10.0043  -10.7585    0.0000 C   0  0  0  0  0  0  0  0  0  0  0  0
    9.9960   -9.9293    0.0000 C   0  0  0  0  0  0  0  0  0  0  0  0
  2  9  1  0  0  0  0
  3  4  1  0  0  0  0
  4  1  1  0  0  0  0
  5  2  1  0  0  0  0
  6  1  2  0  0  0  0
  7  5  1  0  0  0  0
  8  5  1  0  0  0  0
  9 17  1  0  0  0  0
 10  1  1  0  0  0  0
 11  6  1  0  0  0  0
 12  4  1  0  0  0  0
 13  3  1  0  0  0  0
 14  3  1  0  0  0  0
 15  2  2  0  0  0  0
 16 24  1  0  0  0  0
 17 18  1  0  0  0  0
 18 13  1  0  0  0  0
 19 14  1  0  0  0  0
 20 11  2  0  0  0  0
 21  6  1  0  0  0  0
 22 10  2  0  0  0  0
 23 20  1  0  0  0  0
 24 12  2  0  0  0  0
 25 12  1  0  0  0  0
 26 16  2  0  0  0  0
 27 25  2  0  0  0  0
 22 20  1  0  0  0  0
 17 19  1  0  0  0  0
 27 26  1  0  0  0  0
  7  8  1  0  0  0  0
M  END
> <Molecule Name>
DNDI1464849

> <CDD Number>
CDD-1535639

> <IC50_uM>
0.038 (n=1)

$$$$

SketchEl molfile

 25 27  0  0  0  0  0  0  0  0999 V2000
    7.8578   -8.2994    0.0000 C   0  0  0  0  0  0  0  0  0  0  0  0
    7.1454   -8.7160    0.0000 C   0  0  0  0  0  0  0  0  0  0  0  0
    7.8536   -7.4746    0.0000 C   0  0  0  0  0  0  0  0  0  0  0  0
    6.4289   -8.3036    0.0000 C   0  0  0  0  0  0  0  0  0  0  0  0
    8.5743   -8.7076    0.0000 C   0  0  0  0  0  0  0  0  0  0  0  0
    9.2783   -5.8249    0.0000 C   0  0  0  0  0  0  0  0  0  0  0  0
    8.5701   -7.0621    0.0000 C   0  0  0  0  0  0  0  0  0  0  0  0
    8.5660   -6.2415    0.0000 C   0  0  0  0  0  0  0  0  0  0  0  0
    7.1454   -9.5450    0.0000 C   0  0  0  0  0  0  0  0  0  0  0  0
    5.7165   -8.7160    0.0000 C   0  0  0  0  0  0  0  0  0  0  0  0
    9.9949   -8.6951    0.0000 N   0  0  0  0  0  0  0  0  0  0  0  0
    9.2867   -9.9407    0.0000 N   0  0  0  0  0  0  0  0  0  0  0  0
    9.2742   -5.0000    0.0000 O   0  0  0  0  0  0  0  0  0  0  0  0
   10.0032   -9.5242    0.0000 C   0  0  0  0  0  0  0  0  0  0  0  0
    5.7165   -9.5450    0.0000 C   0  0  0  0  0  0  0  0  0  0  0  0
    7.8536   -9.1242    0.0000 O   0  0  0  0  0  0  0  0  0  0  0  0
    9.9949   -6.2373    0.0000 N   0  0  0  0  0  0  0  0  0  0  0  0
    6.4247   -7.4787    0.0000 F   0  0  0  0  0  0  0  0  0  0  0  0
    6.4289   -9.9574    0.0000 C   0  0  0  0  0  0  0  0  0  0  0  0
    8.5743   -9.5325    0.0000 C   0  0  0  0  0  0  0  0  0  0  0  0
    9.2783   -8.2911    0.0000 C   0  0  0  0  0  0  0  0  0  0  0  0
    5.0000   -9.9574    0.0000 Cl  0  0  0  0  0  0  0  0  0  0  0  0
    7.1412   -7.0705    0.0000 C   0  0  0  0  0  0  0  0  0  0  0  0
    7.8494   -5.8290    0.0000 C   0  0  0  0  0  0  0  0  0  0  0  0
    7.1329   -6.2498    0.0000 C   0  0  0  0  0  0  0  0  0  0  0  0
  2  1  1  0  0  0  0
  3  1  1  0  0  0  0
  4  2  2  0  0  0  0
  5  1  1  0  0  0  0
  6  8  1  0  0  0  0
  7  3  2  0  0  0  0
  8  7  1  0  0  0  0
  9  2  1  0  0  0  0
 10  4  1  0  0  0  0
 11 21  2  0  0  0  0
 12 20  1  0  0  0  0
 13  6  2  0  0  0  0
 14 12  2  0  0  0  0
 15 10  2  0  0  0  0
 16  1  1  0  0  0  0
 17  6  1  0  0  0  0
 18  4  1  0  0  0  0
 19  9  2  0  0  0  0
 20  5  2  0  0  0  0
 21  5  1  0  0  0  0
 22 15  1  0  0  0  0
 23  3  1  0  0  0  0
 24 25  1  0  0  0  0
 25 23  2  0  0  0  0
 19 15  1  0  0  0  0
 24  8  2  0  0  0  0
 11 14  1  0  0  0  0
M  END
> <Molecule Name>
DNDI1465075

> <CDD Number>
CDD-1535640

> <IC50_uM>
0.0865 (n=1)

$$$$

SketchEl molfile

 31 34  0  0  0  0  0  0  0  0999 V2000
    8.5669   -5.8251    0.0000 C   0  0  0  0  0  0  0  0  0  0  0  0
    7.1460   -9.9503    0.0000 C   0  0  0  0  0  0  0  0  0  0  0  0
    9.2836   -6.2376    0.0000 C   0  0  0  0  0  0  0  0  0  0  0  0
    7.8585   -9.5336    0.0000 C   0  0  0  0  0  0  0  0  0  0  0  0
    7.8544   -8.7086    0.0000 N   0  0  0  0  0  0  0  0  0  0  0  0
    6.4293   -9.5378    0.0000 C   0  0  0  0  0  0  0  0  0  0  0  0
    7.8544   -6.2376    0.0000 N   0  0  0  0  0  0  0  0  0  0  0  0
    8.5753   -9.9420    0.0000 C   0  0  0  0  0  0  0  0  0  0  0  0
    7.1460  -10.7796    0.0000 C   0  0  0  0  0  0  0  0  0  0  0  0
    5.7167   -9.9503    0.0000 C   0  0  0  0  0  0  0  0  0  0  0  0
    9.9920   -5.8251    0.0000 C   0  0  0  0  0  0  0  0  0  0  0  0
    8.5669   -5.0000    0.0000 O   0  0  0  0  0  0  0  0  0  0  0  0
    7.1377   -8.3044    0.0000 C   0  0  0  0  0  0  0  0  0  0  0  0
    8.5669   -8.2961    0.0000 C   0  0  0  0  0  0  0  0  0  0  0  0
    9.9962   -9.9295    0.0000 N   0  0  0  0  0  0  0  0  0  0  0  0
    9.2878  -11.1754    0.0000 N   0  0  0  0  0  0  0  0  0  0  0  0
   10.0045  -10.7587    0.0000 C   0  0  0  0  0  0  0  0  0  0  0  0
    7.8544   -7.0626    0.0000 C   0  0  0  0  0  0  0  0  0  0  0  0
    8.5669   -7.4752    0.0000 C   0  0  0  0  0  0  0  0  0  0  0  0
    7.1377   -7.4752    0.0000 C   0  0  0  0  0  0  0  0  0  0  0  0
    5.7167  -10.7796    0.0000 C   0  0  0  0  0  0  0  0  0  0  0  0
    6.4251   -8.7128    0.0000 F   0  0  0  0  0  0  0  0  0  0  0  0
    6.4293  -11.1921    0.0000 C   0  0  0  0  0  0  0  0  0  0  0  0
    9.2795   -9.5253    0.0000 C   0  0  0  0  0  0  0  0  0  0  0  0
    8.5753  -10.7671    0.0000 C   0  0  0  0  0  0  0  0  0  0  0  0
    9.9879   -5.0000    0.0000 F   0  0  0  0  0  0  0  0  0  0  0  0
    5.0000  -11.1921    0.0000 Cl  0  0  0  0  0  0  0  0  0  0  0  0
    9.2795   -7.0626    0.0000 C   0  0  0  0  0  0  0  0  0  0  0  0
   10.7046   -6.2334    0.0000 C   0  0  0  0  0  0  0  0  0  0  0  0
    9.9920   -7.4752    0.0000 C   0  0  0  0  0  0  0  0  0  0  0  0
   10.7087   -7.0626    0.0000 C   0  0  0  0  0  0  0  0  0  0  0  0
  2  4  1  0  0  0  0
  3  1  1  0  0  0  0
  4  5  1  0  0  0  0
  5 13  1  0  0  0  0
  6  2  2  0  0  0  0
  7  1  1  0  0  0  0
  8  4  1  0  0  0  0
  9  2  1  0  0  0  0
 10  6  1  0  0  0  0
 11  3  1  0  0  0  0
 12  1  2  0  0  0  0
 13 20  1  0  0  0  0
 14 19  1  0  0  0  0
 15 24  2  0  0  0  0
 16 25  1  0  0  0  0
 17 15  1  0  0  0  0
 18  7  1  0  0  0  0
 19 18  1  0  0  0  0
 20 18  1  0  0  0  0
 21 10  2  0  0  0  0
 22  6  1  0  0  0  0
 23  9  2  0  0  0  0
 24  8  1  0  0  0  0
 25  8  2  0  0  0  0
 26 11  1  0  0  0  0
 27 21  1  0  0  0  0
 28  3  2  0  0  0  0
 29 11  2  0  0  0  0
 30 28  1  0  0  0  0
 31 29  1  0  0  0  0
 31 30  2  0  0  0  0
 14  5  1  0  0  0  0
 23 21  1  0  0  0  0
 17 16  2  0  0  0  0
M  END
> <Molecule Name>
DNDI1465076

> <CDD Number>
CDD-1535641

> <IC50_uM>
0.0175 (n=1)

$$$$

SketchEl molfile

 31 34  0  0  0  0  0  0  0  0999 V2000
    7.1461   -9.9507    0.0000 C   0  0  0  0  0  0  0  0  0  0  0  0
    7.8587   -9.5339    0.0000 C   0  0  0  0  0  0  0  0  0  0  0  0
    7.8545   -8.7088    0.0000 N   0  0  0  0  0  0  0  0  0  0  0  0
    8.5671   -5.8251    0.0000 C   0  0  0  0  0  0  0  0  0  0  0  0
    6.4294   -9.5381    0.0000 C   0  0  0  0  0  0  0  0  0  0  0  0
    8.5755   -9.9423    0.0000 C   0  0  0  0  0  0  0  0  0  0  0  0
    7.8545   -6.2377    0.0000 N   0  0  0  0  0  0  0  0  0  0  0  0
    9.2839   -6.2377    0.0000 C   0  0  0  0  0  0  0  0  0  0  0  0
    7.1461  -10.7799    0.0000 C   0  0  0  0  0  0  0  0  0  0  0  0
    5.7168   -9.9548    0.0000 C   0  0  0  0  0  0  0  0  0  0  0  0
    7.1378   -8.3046    0.0000 C   0  0  0  0  0  0  0  0  0  0  0  0
    8.5671   -8.2963    0.0000 C   0  0  0  0  0  0  0  0  0  0  0  0
    9.9965   -9.9298    0.0000 N   0  0  0  0  0  0  0  0  0  0  0  0
    9.2881  -11.1758    0.0000 N   0  0  0  0  0  0  0  0  0  0  0  0
    8.5671   -5.0000    0.0000 O   0  0  0  0  0  0  0  0  0  0  0  0
    9.9923   -5.8251    0.0000 C   0  0  0  0  0  0  0  0  0  0  0  0
   10.0048  -10.7591    0.0000 C   0  0  0  0  0  0  0  0  0  0  0  0
    7.8545   -7.0628    0.0000 C   0  0  0  0  0  0  0  0  0  0  0  0
    8.5671   -7.4753    0.0000 C   0  0  0  0  0  0  0  0  0  0  0  0
    7.1378   -7.4753    0.0000 C   0  0  0  0  0  0  0  0  0  0  0  0
    5.7168  -10.7799    0.0000 C   0  0  0  0  0  0  0  0  0  0  0  0
    6.4252   -8.7130    0.0000 F   0  0  0  0  0  0  0  0  0  0  0  0
    6.4294  -11.1925    0.0000 C   0  0  0  0  0  0  0  0  0  0  0  0
   10.7049   -6.2335    0.0000 C   0  0  0  0  0  0  0  0  0  0  0  0
    8.5755  -10.7674    0.0000 C   0  0  0  0  0  0  0  0  0  0  0  0
    9.2797   -9.5256    0.0000 C   0  0  0  0  0  0  0  0  0  0  0  0
    5.0000  -11.1925    0.0000 Cl  0  0  0  0  0  0  0  0  0  0  0  0
   11.4175   -5.8168    0.0000 F   0  0  0  0  0  0  0  0  0  0  0  0
    9.2797   -7.0628    0.0000 C   0  0  0  0  0  0  0  0  0  0  0  0
    9.9923   -7.4753    0.0000 C   0  0  0  0  0  0  0  0  0  0  0  0
   10.7091   -7.0628    0.0000 C   0  0  0  0  0  0  0  0  0  0  0  0
  2  1  1  0  0  0  0
  3  2  1  0  0  0  0
  4  7  1  0  0  0  0
  5  1  2  0  0  0  0
  6  2  1  0  0  0  0
  7 18  1  0  0  0  0
  8  4  1  0  0  0  0
  9  1  1  0  0  0  0
 10  5  1  0  0  0  0
 11  3  1  0  0  0  0
 12  3  1  0  0  0  0
 13 26  2  0  0  0  0
 14 25  1  0  0  0  0
 15  4  2  0  0  0  0
 16  8  1  0  0  0  0
 17 13  1  0  0  0  0
 18 19  1  0  0  0  0
 19 12  1  0  0  0  0
 20 11  1  0  0  0  0
 21 10  2  0  0  0  0
 22  5  1  0  0  0  0
 23  9  2  0  0  0  0
 24 16  2  0  0  0  0
 25  6  2  0  0  0  0
 26  6  1  0  0  0  0
 27 21  1  0  0  0  0
 28 24  1  0  0  0  0
 29  8  2  0  0  0  0
 30 29  1  0  0  0  0
 31 24  1  0  0  0  0
 23 21  1  0  0  0  0
 20 18  1  0  0  0  0
 17 14  2  0  0  0  0
 31 30  2  0  0  0  0
M  END
> <Molecule Name>
DNDI1465077

> <CDD Number>
CDD-1535642

> <IC50_uM>
0.0405 (n=1)

$$$$

SketchEl molfile

 30 33  0  0  0  0  0  0  0  0999 V2000
    9.2823   -6.2372    0.0000 C   0  0  0  0  0  0  0  0  0  0  0  0
    9.3698   -7.0579    0.0000 N   0  0  0  0  0  0  0  0  0  0  0  0
    7.1453   -9.9488    0.0000 C   0  0  0  0  0  0  0  0  0  0  0  0
    8.5658   -5.8248    0.0000 C   0  0  0  0  0  0  0  0  0  0  0  0
   10.0363   -5.8998    0.0000 C   0  0  0  0  0  0  0  0  0  0  0  0
    7.8576   -9.5323    0.0000 C   0  0  0  0  0  0  0  0  0  0  0  0
    7.8535   -8.7075    0.0000 N   0  0  0  0  0  0  0  0  0  0  0  0
    6.4288   -9.5364    0.0000 C   0  0  0  0  0  0  0  0  0  0  0  0
   10.1779   -7.2286    0.0000 O   0  0  0  0  0  0  0  0  0  0  0  0
    8.5741   -9.9405    0.0000 C   0  0  0  0  0  0  0  0  0  0  0  0
    7.8535   -6.2372    0.0000 N   0  0  0  0  0  0  0  0  0  0  0  0
   10.5903   -6.5122    0.0000 C   0  0  0  0  0  0  0  0  0  0  0  0
    7.1453  -10.7778    0.0000 C   0  0  0  0  0  0  0  0  0  0  0  0
    5.7165   -9.9530    0.0000 C   0  0  0  0  0  0  0  0  0  0  0  0
    7.1370   -8.3034    0.0000 C   0  0  0  0  0  0  0  0  0  0  0  0
    8.5658   -8.2951    0.0000 C   0  0  0  0  0  0  0  0  0  0  0  0
    9.9946   -9.9280    0.0000 N   0  0  0  0  0  0  0  0  0  0  0  0
    9.2865  -11.1735    0.0000 N   0  0  0  0  0  0  0  0  0  0  0  0
    8.5658   -5.0000    0.0000 O   0  0  0  0  0  0  0  0  0  0  0  0
   10.0030  -10.7570    0.0000 C   0  0  0  0  0  0  0  0  0  0  0  0
    7.8535   -7.0620    0.0000 C   0  0  0  0  0  0  0  0  0  0  0  0
    7.1370   -7.4744    0.0000 C   0  0  0  0  0  0  0  0  0  0  0  0
    8.5658   -7.4744    0.0000 C   0  0  0  0  0  0  0  0  0  0  0  0
    5.7165  -10.7778    0.0000 C   0  0  0  0  0  0  0  0  0  0  0  0
    6.4247   -8.7116    0.0000 F   0  0  0  0  0  0  0  0  0  0  0  0
    6.4288  -11.1902    0.0000 C   0  0  0  0  0  0  0  0  0  0  0  0
    8.5741  -10.7653    0.0000 C   0  0  0  0  0  0  0  0  0  0  0  0
    9.2781   -9.5239    0.0000 C   0  0  0  0  0  0  0  0  0  0  0  0
    5.0000  -11.1902    0.0000 Cl  0  0  0  0  0  0  0  0  0  0  0  0
   11.4110   -6.4288    0.0000 C   0  0  0  0  0  0  0  0  0  0  0  0
  2  1  2  0  0  0  0
  3  6  1  0  0  0  0
  4  1  1  0  0  0  0
  5  1  1  0  0  0  0
  6  7  1  0  0  0  0
  7 15  1  0  0  0  0
  8  3  2  0  0  0  0
  9  2  1  0  0  0  0
 10  6  1  0  0  0  0
 11  4  1  0  0  0  0
 12  5  2  0  0  0  0
 13  3  1  0  0  0  0
 14  8  1  0  0  0  0
 15 22  1  0  0  0  0
 16 23  1  0  0  0  0
 17 28  2  0  0  0  0
 18 27  1  0  0  0  0
 19  4  2  0  0  0  0
 20 17  1  0  0  0  0
 21 11  1  0  0  0  0
 22 21  1  0  0  0  0
 23 21  1  0  0  0  0
 24 14  2  0  0  0  0
 25  8  1  0  0  0  0
 26 13  2  0  0  0  0
 27 10  2  0  0  0  0
 28 10  1  0  0  0  0
 29 24  1  0  0  0  0
 30 12  1  0  0  0  0
 12  9  1  0  0  0  0
 16  7  1  0  0  0  0
 26 24  1  0  0  0  0
 20 18  2  0  0  0  0
M  END
> <Molecule Name>
DNDI1465078

> <CDD Number>
CDD-1535643

> <IC50_uM>
0.076 (n=1)

$$$$

SketchEl molfile

 26 28  0  0  0  0  0  0  0  0999 V2000
    8.5681   -5.8253    0.0000 S   0  0  0  0  0  0  0  0  0  0  0  0
    7.1467   -9.9520    0.0000 C   0  0  0  0  0  0  0  0  0  0  0  0
    7.8553   -8.7098    0.0000 N   0  0  0  0  0  0  0  0  0  0  0  0
    7.8595   -9.5352    0.0000 C   0  0  0  0  0  0  0  0  0  0  0  0
    6.4298   -9.5393    0.0000 C   0  0  0  0  0  0  0  0  0  0  0  0
    7.8553   -6.2380    0.0000 N   0  0  0  0  0  0  0  0  0  0  0  0
    7.1467  -10.7815    0.0000 C   0  0  0  0  0  0  0  0  0  0  0  0
    5.7170   -9.9562    0.0000 C   0  0  0  0  0  0  0  0  0  0  0  0
    8.5681   -5.0000    0.0000 O   0  0  0  0  0  0  0  0  0  0  0  0
    8.5640   -6.6465    0.0000 O   0  0  0  0  0  0  0  0  0  0  0  0
    8.5765   -9.9437    0.0000 C   0  0  0  0  0  0  0  0  0  0  0  0
    8.5681   -8.2972    0.0000 C   0  0  0  0  0  0  0  0  0  0  0  0
    7.1384   -8.3055    0.0000 C   0  0  0  0  0  0  0  0  0  0  0  0
    9.2893  -11.1775    0.0000 N   0  0  0  0  0  0  0  0  0  0  0  0
    7.1384   -7.4760    0.0000 C   0  0  0  0  0  0  0  0  0  0  0  0
    8.5681   -7.4760    0.0000 C   0  0  0  0  0  0  0  0  0  0  0  0
    7.8553   -7.0633    0.0000 C   0  0  0  0  0  0  0  0  0  0  0  0
    5.7170  -10.7815    0.0000 C   0  0  0  0  0  0  0  0  0  0  0  0
    6.4256   -8.7140    0.0000 F   0  0  0  0  0  0  0  0  0  0  0  0
    9.3893   -5.8211    0.0000 C   0  0  0  0  0  0  0  0  0  0  0  0
    6.4298  -11.1942    0.0000 C   0  0  0  0  0  0  0  0  0  0  0  0
    5.0000  -11.1942    0.0000 Cl  0  0  0  0  0  0  0  0  0  0  0  0
    8.5765  -10.7690    0.0000 C   0  0  0  0  0  0  0  0  0  0  0  0
    9.2809   -9.5268    0.0000 C   0  0  0  0  0  0  0  0  0  0  0  0
   10.0062  -10.7607    0.0000 C   0  0  0  0  0  0  0  0  0  0  0  0
    9.9979   -9.9312    0.0000 C   0  0  0  0  0  0  0  0  0  0  0  0
  2  4  1  0  0  0  0
  3 13  1  0  0  0  0
  4  3  1  0  0  0  0
  5  2  2  0  0  0  0
  6  1  1  0  0  0  0
  7  2  1  0  0  0  0
  8  5  1  0  0  0  0
  9  1  2  0  0  0  0
 10  1  2  0  0  0  0
 11  4  1  0  0  0  0
 12 16  1  0  0  0  0
 13 15  1  0  0  0  0
 14 23  1  0  0  0  0
 15 17  1  0  0  0  0
 16 17  1  0  0  0  0
 17  6  1  0  0  0  0
 18  8  2  0  0  0  0
 19  5  1  0  0  0  0
 20  1  1  0  0  0  0
 21  7  2  0  0  0  0
 22 18  1  0  0  0  0
 23 11  2  0  0  0  0
 24 11  1  0  0  0  0
 25 14  2  0  0  0  0
 26 24  2  0  0  0  0
 12  3  1  0  0  0  0
 26 25  1  0  0  0  0
 21 18  1  0  0  0  0
M  END
> <Molecule Name>
DNDI1465079

> <CDD Number>
CDD-1535644

> <IC50_uM>
0.083 (n=1)

$$$$

SketchEl molfile

 30 33  0  0  0  0  0  0  0  0999 V2000
    7.1462   -9.9507    0.0000 C   0  0  0  0  0  0  0  0  0  0  0  0
    7.8546   -8.7089    0.0000 N   0  0  0  0  0  0  0  0  0  0  0  0
    7.8588   -9.5340    0.0000 C   0  0  0  0  0  0  0  0  0  0  0  0
    8.5672   -5.8251    0.0000 C   0  0  0  0  0  0  0  0  0  0  0  0
    6.4294   -9.5382    0.0000 C   0  0  0  0  0  0  0  0  0  0  0  0
    7.8546   -6.2377    0.0000 N   0  0  0  0  0  0  0  0  0  0  0  0
    7.1462  -10.7800    0.0000 C   0  0  0  0  0  0  0  0  0  0  0  0
    5.7168   -9.9549    0.0000 C   0  0  0  0  0  0  0  0  0  0  0  0
    8.5755   -9.9424    0.0000 C   0  0  0  0  0  0  0  0  0  0  0  0
    8.5672   -8.2963    0.0000 C   0  0  0  0  0  0  0  0  0  0  0  0
    7.1378   -8.3047    0.0000 C   0  0  0  0  0  0  0  0  0  0  0  0
    8.5672   -5.0000    0.0000 O   0  0  0  0  0  0  0  0  0  0  0  0
    9.2840   -6.2377    0.0000 C   0  0  0  0  0  0  0  0  0  0  0  0
    9.2881  -11.1759    0.0000 N   0  0  0  0  0  0  0  0  0  0  0  0
    7.8546   -7.0628    0.0000 C   0  0  0  0  0  0  0  0  0  0  0  0
    7.1378   -7.4754    0.0000 C   0  0  0  0  0  0  0  0  0  0  0  0
    8.5672   -7.4754    0.0000 C   0  0  0  0  0  0  0  0  0  0  0  0
    5.7168  -10.7800    0.0000 C   0  0  0  0  0  0  0  0  0  0  0  0
    6.4252   -8.7131    0.0000 F   0  0  0  0  0  0  0  0  0  0  0  0
    6.4294  -11.1926    0.0000 C   0  0  0  0  0  0  0  0  0  0  0  0
    5.0000  -11.1926    0.0000 Cl  0  0  0  0  0  0  0  0  0  0  0  0
    8.5755  -10.7675    0.0000 C   0  0  0  0  0  0  0  0  0  0  0  0
    9.2798   -9.5257    0.0000 C   0  0  0  0  0  0  0  0  0  0  0  0
   10.0049  -10.7592    0.0000 C   0  0  0  0  0  0  0  0  0  0  0  0
    9.2798   -7.0628    0.0000 C   0  0  0  0  0  0  0  0  0  0  0  0
    9.9924   -5.8251    0.0000 C   0  0  0  0  0  0  0  0  0  0  0  0
    9.9966   -9.9299    0.0000 C   0  0  0  0  0  0  0  0  0  0  0  0
   10.7050   -6.2335    0.0000 C   0  0  0  0  0  0  0  0  0  0  0  0
    9.9924   -7.4754    0.0000 C   0  0  0  0  0  0  0  0  0  0  0  0
   10.7092   -7.0628    0.0000 C   0  0  0  0  0  0  0  0  0  0  0  0
  2  3  1  0  0  0  0
  3  1  1  0  0  0  0
  4  6  1  0  0  0  0
  5  1  2  0  0  0  0
  6 15  1  0  0  0  0
  7  1  1  0  0  0  0
  8  5  1  0  0  0  0
  9  3  1  0  0  0  0
 10  2  1  0  0  0  0
 11  2  1  0  0  0  0
 12  4  2  0  0  0  0
 13  4  1  0  0  0  0
 14 22  1  0  0  0  0
 15 16  1  0  0  0  0
 16 11  1  0  0  0  0
 17 10  1  0  0  0  0
 18  8  2  0  0  0  0
 19  5  1  0  0  0  0
 20  7  2  0  0  0  0
 21 18  1  0  0  0  0
 22  9  2  0  0  0  0
 23  9  1  0  0  0  0
 24 27  1  0  0  0  0
 25 13  2  0  0  0  0
 26 13  1  0  0  0  0
 27 23  2  0  0  0  0
 28 26  2  0  0  0  0
 29 25  1  0  0  0  0
 30 28  1  0  0  0  0
 20 18  1  0  0  0  0
 15 17  1  0  0  0  0
 24 14  2  0  0  0  0
 30 29  2  0  0  0  0
M  END
> <Molecule Name>
DNDI1465080

> <CDD Number>
CDD-1535645

> <IC50_uM>
0.00825 (n=1)

$$$$

SketchEl molfile

 32 35  0  0  0  0  0  0  0  0999 V2000
    5.7161   -9.9525    0.0000 C   0  0  0  0  0  0  0  0  0  0  0  0
    5.7148  -10.7798    0.0000 C   0  0  0  0  0  0  0  0  0  0  0  0
    6.4297  -11.1927    0.0000 C   0  0  0  0  0  0  0  0  0  0  0  0
    7.1463  -10.7794    0.0000 C   0  0  0  0  0  0  0  0  0  0  0  0
    7.1434   -9.9488    0.0000 C   0  0  0  0  0  0  0  0  0  0  0  0
    6.4279   -9.5396    0.0000 C   0  0  0  0  0  0  0  0  0  0  0  0
    7.8563   -9.5335    0.0000 C   0  0  0  0  0  0  0  0  0  0  0  0
    8.5724   -9.9434    0.0000 C   0  0  0  0  0  0  0  0  0  0  0  0
    7.8532   -8.7085    0.0000 N   0  0  0  0  0  0  0  0  0  0  0  0
    8.5722  -10.7661    0.0000 C   0  0  0  0  0  0  0  0  0  0  0  0
    9.2874  -11.1758    0.0000 N   0  0  0  0  0  0  0  0  0  0  0  0
   10.0014  -10.7606    0.0000 C   0  0  0  0  0  0  0  0  0  0  0  0
    9.9956   -9.9313    0.0000 C   0  0  0  0  0  0  0  0  0  0  0  0
    9.2797   -9.5252    0.0000 C   0  0  0  0  0  0  0  0  0  0  0  0
    8.5674   -8.2977    0.0000 C   0  0  0  0  0  0  0  0  0  0  0  0
    8.5663   -7.4763    0.0000 C   0  0  0  0  0  0  0  0  0  0  0  0
    7.8520   -7.0626    0.0000 C   0  0  0  0  0  0  0  0  0  0  0  0
    7.1373   -7.4766    0.0000 C   0  0  0  0  0  0  0  0  0  0  0  0
    7.1367   -8.3043    0.0000 C   0  0  0  0  0  0  0  0  0  0  0  0
    7.8520   -6.2376    0.0000 N   0  0  0  0  0  0  0  0  0  0  0  0
    8.5666   -5.8251    0.0000 C   0  0  0  0  0  0  0  0  0  0  0  0
    8.5666   -5.0000    0.0000 O   0  0  0  0  0  0  0  0  0  0  0  0
    9.2811   -6.2376    0.0000 C   0  0  0  0  0  0  0  0  0  0  0  0
    9.2774   -7.0616    0.0000 C   0  0  0  0  0  0  0  0  0  0  0  0
    9.9911   -7.4741    0.0000 C   0  0  0  0  0  0  0  0  0  0  0  0
   10.7066   -7.0615    0.0000 C   0  0  0  0  0  0  0  0  0  0  0  0
   10.7040   -6.2322    0.0000 C   0  0  0  0  0  0  0  0  0  0  0  0
    9.9897   -5.8235    0.0000 C   0  0  0  0  0  0  0  0  0  0  0  0
    5.0000  -11.1918    0.0000 C   0  0  0  0  0  0  0  0  0  0  0  0
    4.2858  -10.7787    0.0000 F   0  0  0  0  0  0  0  0  0  0  0  0
    4.9994  -12.0169    0.0000 F   0  0  0  0  0  0  0  0  0  0  0  0
    4.7871  -10.3947    0.0000 F   0  0  0  0  0  0  0  0  0  0  0  0
  2 29  1  0  0  0  0
 29 30  1  0  0  0  0
 29 31  1  0  0  0  0
 29 32  1  0  0  0  0
  3  4  2  0  0  0  0
  7  8  1  0  0  0  0
  7  9  1  0  0  0  0
  9 19  1  0  0  0  0
 15 16  1  0  0  0  0
 16 17  1  0  0  0  0
 17 18  1  0  0  0  0
 18 19  1  0  0  0  0
  4  5  1  0  0  0  0
 17 20  1  0  0  0  0
  8 10  2  0  0  0  0
 20 21  1  0  0  0  0
  2  3  1  0  0  0  0
 21 22  2  0  0  0  0
 10 11  1  0  0  0  0
 21 23  1  0  0  0  0
  5  6  2  0  0  0  0
 23 24  2  0  0  0  0
 11 12  2  0  0  0  0
 24 25  1  0  0  0  0
  6  1  1  0  0  0  0
 25 26  2  0  0  0  0
 12 13  1  0  0  0  0
 26 27  1  0  0  0  0
  1  2  2  0  0  0  0
 27 28  2  0  0  0  0
 28 23  1  0  0  0  0
 13 14  2  0  0  0  0
 14  8  1  0  0  0  0
  9 15  1  0  0  0  0
  5  7  1  0  0  0  0
M  END
> <Molecule Name>
DNDI1465081

> <CDD Number>
CDD-1535646

> <IC50_uM>
0.0085 (n=1)

$$$$

SketchEl molfile

 26 29  0  0  0  0  0  0  0  0999 V2000
    8.5161   -5.7832    0.0000 C   0  0  0  0  0  0  0  0  0  0  0  0
    7.8537   -6.2706    0.0000 N   0  0  0  0  0  0  0  0  0  0  0  0
    7.8537   -8.7411    0.0000 N   0  0  0  0  0  0  0  0  0  0  0  0
    8.2620   -5.0000    0.0000 N   0  0  0  0  0  0  0  0  0  0  0  0
    7.8579   -9.5659    0.0000 C   0  0  0  0  0  0  0  0  0  0  0  0
    7.8537   -7.0955    0.0000 C   0  0  0  0  0  0  0  0  0  0  0  0
    7.1372   -7.5079    0.0000 C   0  0  0  0  0  0  0  0  0  0  0  0
    8.5661   -7.5079    0.0000 C   0  0  0  0  0  0  0  0  0  0  0  0
    8.5744   -9.9742    0.0000 C   0  0  0  0  0  0  0  0  0  0  0  0
    7.1372   -8.3370    0.0000 C   0  0  0  0  0  0  0  0  0  0  0  0
    8.5661   -8.3286    0.0000 C   0  0  0  0  0  0  0  0  0  0  0  0
    9.3035   -6.0373    0.0000 O   0  0  0  0  0  0  0  0  0  0  0  0
    7.1455   -9.9825    0.0000 C   0  0  0  0  0  0  0  0  0  0  0  0
    9.2868  -11.2073    0.0000 N   0  0  0  0  0  0  0  0  0  0  0  0
    6.4289   -9.5701    0.0000 C   0  0  0  0  0  0  0  0  0  0  0  0
    7.1455  -10.8116    0.0000 C   0  0  0  0  0  0  0  0  0  0  0  0
    7.1830   -5.7832    0.0000 C   0  0  0  0  0  0  0  0  0  0  0  0
    5.7166  -10.8116    0.0000 C   0  0  0  0  0  0  0  0  0  0  0  0
    7.4371   -5.0000    0.0000 C   0  0  0  0  0  0  0  0  0  0  0  0
    5.7166   -9.9825    0.0000 C   0  0  0  0  0  0  0  0  0  0  0  0
    6.4289  -11.2240    0.0000 C   0  0  0  0  0  0  0  0  0  0  0  0
    5.0000  -11.2240    0.0000 Cl  0  0  0  0  0  0  0  0  0  0  0  0
    8.5744  -10.7991    0.0000 C   0  0  0  0  0  0  0  0  0  0  0  0
    9.2785   -9.5576    0.0000 C   0  0  0  0  0  0  0  0  0  0  0  0
   10.0034  -10.7907    0.0000 C   0  0  0  0  0  0  0  0  0  0  0  0
    9.9950   -9.9617    0.0000 C   0  0  0  0  0  0  0  0  0  0  0  0
  2  1  1  0  0  0  0
  3 10  1  0  0  0  0
  4  1  1  0  0  0  0
  5  3  1  0  0  0  0
  6  2  1  0  0  0  0
  7  6  1  0  0  0  0
  8  6  1  0  0  0  0
  9  5  1  0  0  0  0
 10  7  1  0  0  0  0
 11  8  1  0  0  0  0
 12  1  2  0  0  0  0
 13  5  1  0  0  0  0
 14 23  1  0  0  0  0
 15 13  2  0  0  0  0
 16 13  1  0  0  0  0
 17  2  1  0  0  0  0
 18 20  2  0  0  0  0
 19  4  1  0  0  0  0
 20 15  1  0  0  0  0
 21 16  2  0  0  0  0
 22 18  1  0  0  0  0
 23  9  2  0  0  0  0
 24  9  1  0  0  0  0
 25 14  2  0  0  0  0
 26 24  2  0  0  0  0
 17 19  1  0  0  0  0
 11  3  1  0  0  0  0
 26 25  1  0  0  0  0
 21 18  1  0  0  0  0
M  END
> <Molecule Name>
DNDI1465082

> <CDD Number>
CDD-1535647

> <IC50_uM>
0.04 (n=1)

$$$$

SketchEl molfile

 29 31  0  0  0  0  0  0  0  0999 V2000
    5.7160   -9.9520    0.0000 C   0  0  0  0  0  0  0  0  0  0  0  0
    5.7148  -10.7792    0.0000 C   0  0  0  0  0  0  0  0  0  0  0  0
    6.4297  -11.1921    0.0000 C   0  0  0  0  0  0  0  0  0  0  0  0
    7.1460  -10.7788    0.0000 C   0  0  0  0  0  0  0  0  0  0  0  0
    7.1431   -9.9483    0.0000 C   0  0  0  0  0  0  0  0  0  0  0  0
    6.4279   -9.5392    0.0000 C   0  0  0  0  0  0  0  0  0  0  0  0
    7.8561   -9.5331    0.0000 C   0  0  0  0  0  0  0  0  0  0  0  0
    8.5721   -9.9429    0.0000 C   0  0  0  0  0  0  0  0  0  0  0  0
    7.8529   -8.7081    0.0000 N   0  0  0  0  0  0  0  0  0  0  0  0
    8.5718  -10.7655    0.0000 C   0  0  0  0  0  0  0  0  0  0  0  0
    9.2870  -11.1752    0.0000 N   0  0  0  0  0  0  0  0  0  0  0  0
   10.0008  -10.7600    0.0000 C   0  0  0  0  0  0  0  0  0  0  0  0
    9.9950   -9.9308    0.0000 C   0  0  0  0  0  0  0  0  0  0  0  0
    9.2794   -9.5248    0.0000 C   0  0  0  0  0  0  0  0  0  0  0  0
    8.5671   -8.2974    0.0000 C   0  0  0  0  0  0  0  0  0  0  0  0
    8.5659   -7.4761    0.0000 C   0  0  0  0  0  0  0  0  0  0  0  0
    7.8517   -7.0625    0.0000 N   0  0  0  0  0  0  0  0  0  0  0  0
    7.1370   -7.4764    0.0000 C   0  0  0  0  0  0  0  0  0  0  0  0
    7.1365   -8.3040    0.0000 C   0  0  0  0  0  0  0  0  0  0  0  0
    7.8517   -6.2375    0.0000 C   0  0  0  0  0  0  0  0  0  0  0  0
    8.5662   -5.8250    0.0000 C   0  0  0  0  0  0  0  0  0  0  0  0
    7.1373   -5.8250    0.0000 O   0  0  0  0  0  0  0  0  0  0  0  0
    9.2807   -6.2375    0.0000 C   0  0  0  0  0  0  0  0  0  0  0  0
    8.5662   -5.0000    0.0000 C   0  0  0  0  0  0  0  0  0  0  0  0
    8.7797   -6.6219    0.0000 C   0  0  0  0  0  0  0  0  0  0  0  0
    5.0000  -11.1912    0.0000 C   0  0  0  0  0  0  0  0  0  0  0  0
    4.2859  -10.7781    0.0000 F   0  0  0  0  0  0  0  0  0  0  0  0
    4.9994  -12.0162    0.0000 F   0  0  0  0  0  0  0  0  0  0  0  0
    4.7872  -10.3942    0.0000 F   0  0  0  0  0  0  0  0  0  0  0  0
  2 26  1  0  0  0  0
 26 27  1  0  0  0  0
 26 28  1  0  0  0  0
 26 29  1  0  0  0  0
  9 19  1  0  0  0  0
 15 16  1  0  0  0  0
 16 17  1  0  0  0  0
 17 18  1  0  0  0  0
 18 19  1  0  0  0  0
  4  5  1  0  0  0  0
 17 20  1  0  0  0  0
  8 10  2  0  0  0  0
 20 21  1  0  0  0  0
  2  3  1  0  0  0  0
 20 22  2  0  0  0  0
 10 11  1  0  0  0  0
 21 23  1  0  0  0  0
  5  6  2  0  0  0  0
 21 24  1  0  0  0  0
 11 12  2  0  0  0  0
 21 25  1  0  0  0  0
  6  1  1  0  0  0  0
 12 13  1  0  0  0  0
  1  2  2  0  0  0  0
 13 14  2  0  0  0  0
 14  8  1  0  0  0  0
  9 15  1  0  0  0  0
  5  7  1  0  0  0  0
  3  4  2  0  0  0  0
  7  8  1  0  0  0  0
  7  9  1  0  0  0  0
M  END
> <Molecule Name>
DNDI1465083

> <CDD Number>
CDD-1535648

> <IC50_uM>
0.03 (n=1)

$$$$

SketchEl molfile

 31 34  0  0  0  0  0  0  0  0999 V2000
    9.2822   -6.2372    0.0000 C   0  0  0  0  0  0  0  0  0  0  0  0
    8.5657   -5.8248    0.0000 C   0  0  0  0  0  0  0  0  0  0  0  0
    7.1453   -9.9487    0.0000 C   0  0  0  0  0  0  0  0  0  0  0  0
    7.8576   -9.5321    0.0000 C   0  0  0  0  0  0  0  0  0  0  0  0
    7.8534   -8.7073    0.0000 N   0  0  0  0  0  0  0  0  0  0  0  0
   10.0361   -5.8998    0.0000 C   0  0  0  0  0  0  0  0  0  0  0  0
   10.5902   -6.5121    0.0000 N   0  0  0  0  0  0  0  0  0  0  0  0
    6.4288   -9.5363    0.0000 C   0  0  0  0  0  0  0  0  0  0  0  0
    9.3697   -7.0578    0.0000 S   0  0  0  0  0  0  0  0  0  0  0  0
    7.8534   -6.2372    0.0000 N   0  0  0  0  0  0  0  0  0  0  0  0
   10.1778   -7.2286    0.0000 C   0  0  0  0  0  0  0  0  0  0  0  0
    8.5740   -9.9403    0.0000 C   0  0  0  0  0  0  0  0  0  0  0  0
    7.1453  -10.7776    0.0000 C   0  0  0  0  0  0  0  0  0  0  0  0
    5.7165   -9.9487    0.0000 C   0  0  0  0  0  0  0  0  0  0  0  0
    8.5657   -5.0000    0.0000 O   0  0  0  0  0  0  0  0  0  0  0  0
    8.5657   -8.2949    0.0000 C   0  0  0  0  0  0  0  0  0  0  0  0
    7.1369   -8.3033    0.0000 C   0  0  0  0  0  0  0  0  0  0  0  0
    9.2863  -11.1733    0.0000 N   0  0  0  0  0  0  0  0  0  0  0  0
    9.9945   -9.9278    0.0000 N   0  0  0  0  0  0  0  0  0  0  0  0
   10.0028  -10.7568    0.0000 C   0  0  0  0  0  0  0  0  0  0  0  0
    7.8534   -7.0619    0.0000 C   0  0  0  0  0  0  0  0  0  0  0  0
    8.5657   -7.4743    0.0000 C   0  0  0  0  0  0  0  0  0  0  0  0
    7.1369   -7.4743    0.0000 C   0  0  0  0  0  0  0  0  0  0  0  0
    5.7165  -10.7776    0.0000 C   0  0  0  0  0  0  0  0  0  0  0  0
    6.4246   -8.7115    0.0000 F   0  0  0  0  0  0  0  0  0  0  0  0
    6.4288  -11.1900    0.0000 C   0  0  0  0  0  0  0  0  0  0  0  0
    9.2780   -9.5238    0.0000 C   0  0  0  0  0  0  0  0  0  0  0  0
    8.5740  -10.7651    0.0000 C   0  0  0  0  0  0  0  0  0  0  0  0
    5.0000  -11.1900    0.0000 Cl  0  0  0  0  0  0  0  0  0  0  0  0
   10.2069   -5.0958    0.0000 C   0  0  0  0  0  0  0  0  0  0  0  0
    7.1369   -5.8248    0.0000 H   0  0  0  0  0  0  0  0  0  0  0  0
  2  1  1  0  0  0  0
  3  4  1  0  0  0  0
  4  5  1  0  0  0  0
  5 17  1  0  0  0  0
  6  1  2  0  0  0  0
  7  6  1  0  0  0  0
  8  3  2  0  0  0  0
  9  1  1  0  0  0  0
 10  2  1  0  0  0  0
 11  9  1  0  0  0  0
 12  4  1  0  0  0  0
 13  3  1  0  0  0  0
 14  8  1  0  0  0  0
 15  2  2  0  0  0  0
 16 22  1  0  0  0  0
 17 23  1  0  0  0  0
 18 28  1  0  0  0  0
 19 27  2  0  0  0  0
 20 19  1  0  0  0  0
 21 10  1  0  0  0  0
 22 21  1  0  0  0  0
 23 21  1  0  0  0  0
 24 14  2  0  0  0  0
 25  8  1  0  0  0  0
 26 13  2  0  0  0  0
 27 12  1  0  0  0  0
 28 12  2  0  0  0  0
 29 24  1  0  0  0  0
 30  6  1  0  0  0  0
  7 11  2  0  0  0  0
 16  5  1  0  0  0  0
 26 24  1  0  0  0  0
 20 18  2  0  0  0  0
 31 10  1  0  0  0  0
M  END
> <Molecule Name>
DNDI1465500

> <CDD Number>
CDD-1535649

> <IC50_uM>
0.0785 (n=1)

$$$$

SketchEl molfile

 31 34  0  0  0  0  0  0  0  0999 V2000
    9.2820   -6.2371    0.0000 C   0  0  0  0  0  0  0  0  0  0  0  0
    9.3695   -7.0577    0.0000 N   0  0  0  0  0  0  0  0  0  0  0  0
    8.5656   -5.8247    0.0000 C   0  0  0  0  0  0  0  0  0  0  0  0
    7.1452   -9.9485    0.0000 C   0  0  0  0  0  0  0  0  0  0  0  0
   10.0360   -5.8997    0.0000 C   0  0  0  0  0  0  0  0  0  0  0  0
   10.1776   -7.2285    0.0000 N   0  0  0  0  0  0  0  0  0  0  0  0
    7.8575   -9.5320    0.0000 C   0  0  0  0  0  0  0  0  0  0  0  0
    7.8533   -8.7072    0.0000 N   0  0  0  0  0  0  0  0  0  0  0  0
    6.4287   -9.5361    0.0000 C   0  0  0  0  0  0  0  0  0  0  0  0
    8.5739   -9.9402    0.0000 C   0  0  0  0  0  0  0  0  0  0  0  0
    7.8533   -6.2371    0.0000 N   0  0  0  0  0  0  0  0  0  0  0  0
   10.5900   -6.5120    0.0000 C   0  0  0  0  0  0  0  0  0  0  0  0
    7.1452  -10.7774    0.0000 C   0  0  0  0  0  0  0  0  0  0  0  0
    5.7165   -9.9527    0.0000 C   0  0  0  0  0  0  0  0  0  0  0  0
    7.1369   -8.3032    0.0000 C   0  0  0  0  0  0  0  0  0  0  0  0
    8.5656   -8.2948    0.0000 C   0  0  0  0  0  0  0  0  0  0  0  0
    9.9943   -9.9277    0.0000 N   0  0  0  0  0  0  0  0  0  0  0  0
    9.2862  -11.1731    0.0000 N   0  0  0  0  0  0  0  0  0  0  0  0
    8.5656   -5.0000    0.0000 O   0  0  0  0  0  0  0  0  0  0  0  0
   10.0027  -10.7566    0.0000 C   0  0  0  0  0  0  0  0  0  0  0  0
    7.8533   -7.0619    0.0000 C   0  0  0  0  0  0  0  0  0  0  0  0
    8.5656   -7.4742    0.0000 C   0  0  0  0  0  0  0  0  0  0  0  0
    7.1369   -7.4742    0.0000 C   0  0  0  0  0  0  0  0  0  0  0  0
    5.7165  -10.7774    0.0000 C   0  0  0  0  0  0  0  0  0  0  0  0
    6.4246   -8.7114    0.0000 F   0  0  0  0  0  0  0  0  0  0  0  0
    6.4287  -11.1898    0.0000 C   0  0  0  0  0  0  0  0  0  0  0  0
    9.2779   -9.5236    0.0000 C   0  0  0  0  0  0  0  0  0  0  0  0
    8.5739  -10.7649    0.0000 C   0  0  0  0  0  0  0  0  0  0  0  0
    5.0000  -11.1898    0.0000 Cl  0  0  0  0  0  0  0  0  0  0  0  0
   11.4106   -6.4287    0.0000 C   0  0  0  0  0  0  0  0  0  0  0  0
    7.1369   -5.8247    0.0000 H   0  0  0  0  0  0  0  0  0  0  0  0
  2  1  1  0  0  0  0
  3  1  1  0  0  0  0
  4  7  1  0  0  0  0
  5  1  2  0  0  0  0
  6  2  1  0  0  0  0
  7  8  1  0  0  0  0
  8 15  1  0  0  0  0
  9  4  2  0  0  0  0
 10  7  1  0  0  0  0
 11  3  1  0  0  0  0
 12  5  1  0  0  0  0
 13  4  1  0  0  0  0
 14  9  1  0  0  0  0
 15 23  1  0  0  0  0
 16 22  1  0  0  0  0
 17 27  2  0  0  0  0
 18 28  1  0  0  0  0
 19  3  2  0  0  0  0
 20 17  1  0  0  0  0
 21 11  1  0  0  0  0
 22 21  1  0  0  0  0
 23 21  1  0  0  0  0
 24 14  2  0  0  0  0
 25  9  1  0  0  0  0
 26 13  2  0  0  0  0
 27 10  1  0  0  0  0
 28 10  2  0  0  0  0
 29 24  1  0  0  0  0
 30 12  1  0  0  0  0
 12  6  2  0  0  0  0
 16  8  1  0  0  0  0
 26 24  1  0  0  0  0
 20 18  2  0  0  0  0
 31 11  1  0  0  0  0
M  END
> <Molecule Name>
DNDI1465501

> <CDD Number>
CDD-1535650

> <IC50_uM>
0.1725 (n=1)

$$$$

SketchEl molfile

 32 35  0  0  0  0  0  0  0  0999 V2000
    7.1461   -9.9507    0.0000 C   0  0  0  0  0  0  0  0  0  0  0  0
    7.8587   -9.5339    0.0000 C   0  0  0  0  0  0  0  0  0  0  0  0
    7.8545   -8.7088    0.0000 N   0  0  0  0  0  0  0  0  0  0  0  0
    8.5671   -5.8251    0.0000 C   0  0  0  0  0  0  0  0  0  0  0  0
    6.4294   -9.5381    0.0000 C   0  0  0  0  0  0  0  0  0  0  0  0
    8.5755   -9.9423    0.0000 C   0  0  0  0  0  0  0  0  0  0  0  0
    7.8545   -6.2377    0.0000 N   0  0  0  0  0  0  0  0  0  0  0  0
    7.1461  -10.7799    0.0000 C   0  0  0  0  0  0  0  0  0  0  0  0
    5.7168   -9.9548    0.0000 C   0  0  0  0  0  0  0  0  0  0  0  0
    9.2839   -6.2377    0.0000 C   0  0  0  0  0  0  0  0  0  0  0  0
    7.1378   -8.3046    0.0000 C   0  0  0  0  0  0  0  0  0  0  0  0
    8.5671   -8.2963    0.0000 C   0  0  0  0  0  0  0  0  0  0  0  0
    9.9965   -9.9298    0.0000 N   0  0  0  0  0  0  0  0  0  0  0  0
    9.2881  -11.1758    0.0000 N   0  0  0  0  0  0  0  0  0  0  0  0
    8.5671   -5.0000    0.0000 O   0  0  0  0  0  0  0  0  0  0  0  0
   10.0048  -10.7591    0.0000 C   0  0  0  0  0  0  0  0  0  0  0  0
    7.8545   -7.0628    0.0000 C   0  0  0  0  0  0  0  0  0  0  0  0
    8.5671   -7.4753    0.0000 C   0  0  0  0  0  0  0  0  0  0  0  0
    7.1378   -7.4753    0.0000 C   0  0  0  0  0  0  0  0  0  0  0  0
    9.2797   -7.0628    0.0000 C   0  0  0  0  0  0  0  0  0  0  0  0
    9.9923   -5.8251    0.0000 C   0  0  0  0  0  0  0  0  0  0  0  0
    5.7168  -10.7799    0.0000 C   0  0  0  0  0  0  0  0  0  0  0  0
    6.4252   -8.7130    0.0000 F   0  0  0  0  0  0  0  0  0  0  0  0
    6.4294  -11.1925    0.0000 C   0  0  0  0  0  0  0  0  0  0  0  0
   10.7091   -7.0628    0.0000 C   0  0  0  0  0  0  0  0  0  0  0  0
    8.5755  -10.7674    0.0000 C   0  0  0  0  0  0  0  0  0  0  0  0
    9.2797   -9.5256    0.0000 C   0  0  0  0  0  0  0  0  0  0  0  0
   10.7049   -6.2335    0.0000 C   0  0  0  0  0  0  0  0  0  0  0  0
    9.9923   -7.4753    0.0000 C   0  0  0  0  0  0  0  0  0  0  0  0
    5.0000  -11.1925    0.0000 Cl  0  0  0  0  0  0  0  0  0  0  0  0
   11.4217   -7.4753    0.0000 F   0  0  0  0  0  0  0  0  0  0  0  0
    7.1378   -5.8251    0.0000 H   0  0  0  0  0  0  0  0  0  0  0  0
  2  1  1  0  0  0  0
  3  2  1  0  0  0  0
  4  7  1  0  0  0  0
  5  1  2  0  0  0  0
  6  2  1  0  0  0  0
  7 17  1  0  0  0  0
  8  1  1  0  0  0  0
  9  5  1  0  0  0  0
 10  4  1  0  0  0  0
 11  3  1  0  0  0  0
 12  3  1  0  0  0  0
 13 27  2  0  0  0  0
 14 26  1  0  0  0  0
 15  4  2  0  0  0  0
 16 14  2  0  0  0  0
 17 19  1  0  0  0  0
 18 12  1  0  0  0  0
 19 11  1  0  0  0  0
 20 10  2  0  0  0  0
 21 10  1  0  0  0  0
 22  9  2  0  0  0  0
 23  5  1  0  0  0  0
 24  8  2  0  0  0  0
 25 28  1  0  0  0  0
 26  6  2  0  0  0  0
 27  6  1  0  0  0  0
 28 21  2  0  0  0  0
 29 20  1  0  0  0  0
 30 22  1  0  0  0  0
 31 25  1  0  0  0  0
 24 22  1  0  0  0  0
 17 18  1  0  0  0  0
 13 16  1  0  0  0  0
 25 29  2  0  0  0  0
 32  7  1  0  0  0  0
M  END
> <Molecule Name>
DNDI1465502

> <CDD Number>
CDD-1535651

> <IC50_uM>
0.0215 (n=1)

$$$$

SketchEl molfile

 29 32  0  0  0  0  0  0  0  0999 V2000
    8.5661   -6.3748    0.0000 C   0  0  0  0  0  0  0  0  0  0  0  0
    7.8537   -6.7873    0.0000 C   0  0  0  0  0  0  0  0  0  0  0  0
    7.1455  -10.4992    0.0000 C   0  0  0  0  0  0  0  0  0  0  0  0
    7.8537   -7.6121    0.0000 N   0  0  0  0  0  0  0  0  0  0  0  0
    8.6495   -5.5499    0.0000 C   0  0  0  0  0  0  0  0  0  0  0  0
    7.8537   -9.2577    0.0000 N   0  0  0  0  0  0  0  0  0  0  0  0
    7.8579  -10.0826    0.0000 C   0  0  0  0  0  0  0  0  0  0  0  0
    9.4577   -5.3791    0.0000 N   0  0  0  0  0  0  0  0  0  0  0  0
    9.3202   -6.7081    0.0000 S   0  0  0  0  0  0  0  0  0  0  0  0
    6.4290  -10.0868    0.0000 C   0  0  0  0  0  0  0  0  0  0  0  0
    9.8701   -6.0957    0.0000 C   0  0  0  0  0  0  0  0  0  0  0  0
    7.1455  -11.3283    0.0000 C   0  0  0  0  0  0  0  0  0  0  0  0
    5.7166  -10.5034    0.0000 C   0  0  0  0  0  0  0  0  0  0  0  0
    8.5745  -10.4909    0.0000 C   0  0  0  0  0  0  0  0  0  0  0  0
    7.1372   -6.3748    0.0000 O   0  0  0  0  0  0  0  0  0  0  0  0
    7.1372   -8.0246    0.0000 C   0  0  0  0  0  0  0  0  0  0  0  0
    8.5661   -8.0246    0.0000 C   0  0  0  0  0  0  0  0  0  0  0  0
    7.1372   -8.8536    0.0000 C   0  0  0  0  0  0  0  0  0  0  0  0
    8.5661   -8.8453    0.0000 C   0  0  0  0  0  0  0  0  0  0  0  0
    9.2869  -11.7240    0.0000 N   0  0  0  0  0  0  0  0  0  0  0  0
    5.7166  -11.3283    0.0000 C   0  0  0  0  0  0  0  0  0  0  0  0
    6.4248   -9.2619    0.0000 F   0  0  0  0  0  0  0  0  0  0  0  0
    6.4290  -11.7407    0.0000 C   0  0  0  0  0  0  0  0  0  0  0  0
    5.0000  -11.7407    0.0000 Cl  0  0  0  0  0  0  0  0  0  0  0  0
    8.5745  -11.3158    0.0000 C   0  0  0  0  0  0  0  0  0  0  0  0
    8.0371   -5.0000    0.0000 C   0  0  0  0  0  0  0  0  0  0  0  0
    9.2785  -10.0743    0.0000 C   0  0  0  0  0  0  0  0  0  0  0  0
   10.0034  -11.3074    0.0000 C   0  0  0  0  0  0  0  0  0  0  0  0
    9.9951  -10.4784    0.0000 C   0  0  0  0  0  0  0  0  0  0  0  0
  2  1  1  0  0  0  0
  3  7  1  0  0  0  0
  4  2  1  0  0  0  0
  5  1  2  0  0  0  0
  6 18  1  0  0  0  0
  7  6  1  0  0  0  0
  8  5  1  0  0  0  0
  9  1  1  0  0  0  0
 10  3  2  0  0  0  0
 11  9  1  0  0  0  0
 12  3  1  0  0  0  0
 13 10  1  0  0  0  0
 14  7  1  0  0  0  0
 15  2  2  0  0  0  0
 16  4  1  0  0  0  0
 17  4  1  0  0  0  0
 18 16  1  0  0  0  0
 19 17  1  0  0  0  0
 20 25  1  0  0  0  0
 21 13  2  0  0  0  0
 22 10  1  0  0  0  0
 23 12  2  0  0  0  0
 24 21  1  0  0  0  0
 25 14  2  0  0  0  0
 26  5  1  0  0  0  0
 27 14  1  0  0  0  0
 28 29  1  0  0  0  0
 29 27  2  0  0  0  0
  8 11  2  0  0  0  0
 19  6  1  0  0  0  0
 23 21  1  0  0  0  0
 28 20  2  0  0  0  0
M  END
> <Molecule Name>
DNDI1465503

> <CDD Number>
CDD-1535652

> <IC50_uM>
0.036 (n=1)

$$$$

SketchEl molfile

 31 33  0  0  0  0  0  0  0  0999 V2000
   -8.6754   -2.2675    0.0000 C   0  0  0  0  0  0  0  0  0  0  0  0
   -6.5643   -1.0453    0.0000 C   0  0  0  0  0  0  0  0  0  0  0  0
   -4.4457   -2.2568    0.0000 C   0  0  0  0  0  0  0  0  0  0  0  0
   -4.4457   -4.7160    0.0000 C   0  0  0  0  0  0  0  0  0  0  0  0
   -6.5589   -5.9399    0.0000 C   0  0  0  0  0  0  0  0  0  0  0  0
   -8.6754   -4.7174    0.0000 C   0  0  0  0  0  0  0  0  0  0  0  0
  -10.7921   -5.9395    0.0000 C   0  0  0  0  0  0  0  0  0  0  0  0
  -10.7921   -8.3837    0.0000 F   0  0  0  0  0  0  0  0  0  0  0  0
  -12.9089   -4.7174    0.0000 F   0  0  0  0  0  0  0  0  0  0  0  0
   -8.6754   -7.1616    0.0000 F   0  0  0  0  0  0  0  0  0  0  0  0
   -2.3348   -1.0276    0.0000 C   0  0  0  0  0  0  0  0  0  0  0  0
   -0.2147   -2.2408    0.0000 C   0  0  0  0  0  0  0  0  0  0  0  0
    1.8796   -1.0030    0.0000 C   0  0  0  0  0  0  0  0  0  0  0  0
    4.0159   -2.2050    0.0000 C   0  0  0  0  0  0  0  0  0  0  0  0
    4.0159   -4.6603    0.0000 C   0  0  0  0  0  0  0  0  0  0  0  0
    1.9021   -5.8901    0.0000 N   0  0  0  0  0  0  0  0  0  0  0  0
   -0.2147   -4.6766    0.0000 C   0  0  0  0  0  0  0  0  0  0  0  0
   -2.3348    1.4153    0.0000 N   0  0  0  0  0  0  0  0  0  0  0  0
   -0.2331    2.6449    0.0000 C   0  0  0  0  0  0  0  0  0  0  0  0
    1.8843    1.4162    0.0000 C   0  0  0  0  0  0  0  0  0  0  0  0
    3.9922    2.6351    0.0000 C   0  0  0  0  0  0  0  0  0  0  0  0
    3.9922    5.0791    0.0000 N   0  0  0  0  0  0  0  0  0  0  0  0
    1.8724    6.2989    0.0000 C   0  0  0  0  0  0  0  0  0  0  0  0
   -0.2331    5.0750    0.0000 C   0  0  0  0  0  0  0  0  0  0  0  0
    6.1078    6.3004    0.0000 C   0  0  0  0  0  0  0  0  0  0  0  0
    8.2234    5.0791    0.0000 N   0  0  0  0  0  0  0  0  0  0  0  0
   10.3322    6.3194    0.0000 C   0  0  0  0  0  0  0  0  0  0  0  0
   12.4576    5.1153    0.0000 C   0  0  0  0  0  0  0  0  0  0  0  0
   10.3322    8.7619    0.0000 C   0  0  0  0  0  0  0  0  0  0  0  0
   10.9834    3.9648    0.0000 C   0  0  0  0  0  0  0  0  0  0  0  0
    6.1078    8.7433    0.0000 O   0  0  0  0  0  0  0  0  0  0  0  0
  2  1  1  0  0  0  0
  3  2  2  0  0  0  0
  4  3  1  0  0  0  0
  5  4  2  0  0  0  0
  6  5  1  0  0  0  0
  1  6  2  0  0  0  0
  6  7  1  0  0  0  0
  7  8  1  0  0  0  0
  7  9  1  0  0  0  0
  7 10  1  0  0  0  0
  3 11  1  0  0  0  0
 11 12  1  0  0  0  0
 13 12  1  0  0  0  0
 14 13  2  0  0  0  0
 15 14  1  0  0  0  0
 16 15  2  0  0  0  0
 17 16  1  0  0  0  0
 12 17  2  0  0  0  0
 11 18  1  0  0  0  0
 18 19  1  0  0  0  0
 19 20  1  0  0  0  0
 20 21  1  0  0  0  0
 21 22  1  0  0  0  0
 22 23  1  0  0  0  0
 23 24  1  0  0  0  0
 19 24  1  0  0  0  0
 22 25  1  0  0  0  0
 25 26  1  0  0  0  0
 26 27  1  0  0  0  0
 27 28  1  0  0  0  0
 27 29  1  0  0  0  0
 27 30  1  0  0  0  0
 25 31  2  0  0  0  0
M  END
> <Molecule Name>
DNDI1465504

> <CDD Number>
CDD-1535653

> <IC50_uM>
0.0541109970338747 ร/รท 1.18468190009232 (n=2)

$$$$

SketchEl molfile

 30 32  0  0  0  0  0  0  0  0999 V2000
    5.7159   -8.7183    0.0000 C   0  0  0  0  0  0  0  0  0  0  0  0
    5.7147   -9.5456    0.0000 C   0  0  0  0  0  0  0  0  0  0  0  0
    6.4295   -9.9585    0.0000 C   0  0  0  0  0  0  0  0  0  0  0  0
    7.1459   -9.5451    0.0000 C   0  0  0  0  0  0  0  0  0  0  0  0
    7.1430   -8.7147    0.0000 C   0  0  0  0  0  0  0  0  0  0  0  0
    6.4277   -8.3056    0.0000 C   0  0  0  0  0  0  0  0  0  0  0  0
    7.8559   -8.2995    0.0000 C   0  0  0  0  0  0  0  0  0  0  0  0
    8.5718   -8.7093    0.0000 C   0  0  0  0  0  0  0  0  0  0  0  0
    7.8528   -7.4745    0.0000 N   0  0  0  0  0  0  0  0  0  0  0  0
    8.5656   -7.0594    0.0000 C   0  0  0  0  0  0  0  0  0  0  0  0
    8.5716   -9.5319    0.0000 C   0  0  0  0  0  0  0  0  0  0  0  0
    9.2868   -9.9416    0.0000 N   0  0  0  0  0  0  0  0  0  0  0  0
   10.0006   -9.5263    0.0000 C   0  0  0  0  0  0  0  0  0  0  0  0
    9.9948   -8.6972    0.0000 C   0  0  0  0  0  0  0  0  0  0  0  0
    9.2791   -8.2912    0.0000 C   0  0  0  0  0  0  0  0  0  0  0  0
    9.2807   -7.4743    0.0000 C   0  0  0  0  0  0  0  0  0  0  0  0
    9.9914   -7.0627    0.0000 C   0  0  0  0  0  0  0  0  0  0  0  0
    9.9925   -6.2373    0.0000 N   0  0  0  0  0  0  0  0  0  0  0  0
    9.2768   -5.8254    0.0000 C   0  0  0  0  0  0  0  0  0  0  0  0
    8.5597   -6.2387    0.0000 C   0  0  0  0  0  0  0  0  0  0  0  0
   10.7070   -5.8250    0.0000 C   0  0  0  0  0  0  0  0  0  0  0  0
   10.7070   -5.0000    0.0000 O   0  0  0  0  0  0  0  0  0  0  0  0
   11.4214   -6.2374    0.0000 C   0  0  0  0  0  0  0  0  0  0  0  0
   11.4214   -7.0624    0.0000 C   0  0  0  0  0  0  0  0  0  0  0  0
   12.1359   -5.8250    0.0000 C   0  0  0  0  0  0  0  0  0  0  0  0
   10.8381   -6.8207    0.0000 C   0  0  0  0  0  0  0  0  0  0  0  0
    5.0000   -9.9575    0.0000 C   0  0  0  0  0  0  0  0  0  0  0  0
    4.2860   -9.5445    0.0000 F   0  0  0  0  0  0  0  0  0  0  0  0
    4.9994  -10.7824    0.0000 F   0  0  0  0  0  0  0  0  0  0  0  0
    4.7871   -9.1605    0.0000 F   0  0  0  0  0  0  0  0  0  0  0  0
  2 27  1  0  0  0  0
 27 28  1  0  0  0  0
 27 29  1  0  0  0  0
 27 30  1  0  0  0  0
 14 15  2  0  0  0  0
 15  8  1  0  0  0  0
 10 16  1  0  0  0  0
  3  4  2  0  0  0  0
  7  8  1  0  0  0  0
  7  9  1  0  0  0  0
  4  5  1  0  0  0  0
 10 20  1  0  0  0  0
 16 17  1  0  0  0  0
 17 18  1  0  0  0  0
 18 19  1  0  0  0  0
 19 20  1  0  0  0  0
  9 10  1  0  0  0  0
 18 21  1  0  0  0  0
  2  3  1  0  0  0  0
 21 22  2  0  0  0  0
  8 11  2  0  0  0  0
 21 23  1  0  0  0  0
  5  6  2  0  0  0  0
 23 24  1  0  0  0  0
 11 12  1  0  0  0  0
 23 25  1  0  0  0  0
  6  1  1  0  0  0  0
 23 26  1  0  0  0  0
 12 13  2  0  0  0  0
  1  2  2  0  0  0  0
 13 14  1  0  0  0  0
  5  7  1  0  0  0  0
M  END
> <Molecule Name>
DNDI1465505

> <CDD Number>
CDD-1535654

> <IC50_uM>
0.024 (n=1)

$$$$

SketchEl molfile

 29 32  0  0  0  0  0  0  0  0999 V2000
    5.7159   -8.8887    0.0000 C   0  0  0  0  0  0  0  0  0  0  0  0
    5.7147   -9.7160    0.0000 C   0  0  0  0  0  0  0  0  0  0  0  0
    6.4295  -10.1289    0.0000 C   0  0  0  0  0  0  0  0  0  0  0  0
    7.1459   -9.7155    0.0000 C   0  0  0  0  0  0  0  0  0  0  0  0
    7.1430   -8.8851    0.0000 C   0  0  0  0  0  0  0  0  0  0  0  0
    6.4277   -8.4760    0.0000 C   0  0  0  0  0  0  0  0  0  0  0  0
    7.8558   -8.4699    0.0000 C   0  0  0  0  0  0  0  0  0  0  0  0
    8.5718   -8.8797    0.0000 C   0  0  0  0  0  0  0  0  0  0  0  0
    7.8527   -7.6450    0.0000 N   0  0  0  0  0  0  0  0  0  0  0  0
    8.5656   -7.2298    0.0000 C   0  0  0  0  0  0  0  0  0  0  0  0
    8.5716   -9.7023    0.0000 C   0  0  0  0  0  0  0  0  0  0  0  0
    9.2867  -10.1120    0.0000 N   0  0  0  0  0  0  0  0  0  0  0  0
   10.0006   -9.6967    0.0000 C   0  0  0  0  0  0  0  0  0  0  0  0
    9.9948   -8.8676    0.0000 C   0  0  0  0  0  0  0  0  0  0  0  0
    9.2790   -8.4616    0.0000 C   0  0  0  0  0  0  0  0  0  0  0  0
    9.2806   -7.6448    0.0000 C   0  0  0  0  0  0  0  0  0  0  0  0
    9.9914   -7.2331    0.0000 C   0  0  0  0  0  0  0  0  0  0  0  0
    9.9925   -6.4078    0.0000 N   0  0  0  0  0  0  0  0  0  0  0  0
    9.2767   -5.9958    0.0000 C   0  0  0  0  0  0  0  0  0  0  0  0
    8.5597   -6.4092    0.0000 C   0  0  0  0  0  0  0  0  0  0  0  0
   10.7069   -5.9954    0.0000 C   0  0  0  0  0  0  0  0  0  0  0  0
   11.4589   -6.3275    0.0000 S   0  0  0  0  0  0  0  0  0  0  0  0
   12.0110   -5.7146    0.0000 C   0  0  0  0  0  0  0  0  0  0  0  0
   11.5984   -5.0000    0.0000 C   0  0  0  0  0  0  0  0  0  0  0  0
   10.7916   -5.1717    0.0000 N   0  0  0  0  0  0  0  0  0  0  0  0
    5.0000  -10.1279    0.0000 C   0  0  0  0  0  0  0  0  0  0  0  0
    4.2860   -9.7149    0.0000 F   0  0  0  0  0  0  0  0  0  0  0  0
    4.9994  -10.9528    0.0000 F   0  0  0  0  0  0  0  0  0  0  0  0
    4.7871   -9.3309    0.0000 F   0  0  0  0  0  0  0  0  0  0  0  0
  2 26  1  0  0  0  0
 26 27  1  0  0  0  0
 26 28  1  0  0  0  0
 26 29  1  0  0  0  0
  5  7  1  0  0  0  0
 14 15  2  0  0  0  0
 15  8  1  0  0  0  0
 10 16  1  0  0  0  0
  3  4  2  0  0  0  0
  7  8  1  0  0  0  0
  7  9  1  0  0  0  0
  4  5  1  0  0  0  0
 10 20  1  0  0  0  0
 16 17  1  0  0  0  0
 17 18  1  0  0  0  0
 18 19  1  0  0  0  0
 19 20  1  0  0  0  0
  9 10  1  0  0  0  0
 18 21  1  0  0  0  0
 21 22  1  0  0  0  0
  2  3  1  0  0  0  0
  8 11  2  0  0  0  0
  5  6  2  0  0  0  0
 11 12  1  0  0  0  0
 22 23  1  0  0  0  0
 23 24  2  0  0  0  0
 24 25  1  0  0  0  0
 25 21  2  0  0  0  0
  6  1  1  0  0  0  0
 12 13  2  0  0  0  0
  1  2  2  0  0  0  0
 13 14  1  0  0  0  0
M  END
> <Molecule Name>
DNDI1465506

> <CDD Number>
CDD-1535655

> <IC50_uM>
0.0055 (n=1)

$$$$

SketchEl molfile

 31 34  0  0  0  0  0  0  0  0999 V2000
    5.7159   -8.7180    0.0000 C   0  0  0  0  0  0  0  0  0  0  0  0
    5.7147   -9.5453    0.0000 C   0  0  0  0  0  0  0  0  0  0  0  0
    6.4294   -9.9581    0.0000 C   0  0  0  0  0  0  0  0  0  0  0  0
    7.1458   -9.5448    0.0000 C   0  0  0  0  0  0  0  0  0  0  0  0
    7.1429   -8.7144    0.0000 C   0  0  0  0  0  0  0  0  0  0  0  0
    6.4276   -8.3053    0.0000 C   0  0  0  0  0  0  0  0  0  0  0  0
    7.8557   -8.2992    0.0000 C   0  0  0  0  0  0  0  0  0  0  0  0
    8.5716   -8.7090    0.0000 C   0  0  0  0  0  0  0  0  0  0  0  0
    7.8526   -7.4744    0.0000 N   0  0  0  0  0  0  0  0  0  0  0  0
    8.5654   -7.0592    0.0000 C   0  0  0  0  0  0  0  0  0  0  0  0
    8.5714   -9.5316    0.0000 C   0  0  0  0  0  0  0  0  0  0  0  0
    9.2865   -9.9412    0.0000 N   0  0  0  0  0  0  0  0  0  0  0  0
   10.0003   -9.5260    0.0000 C   0  0  0  0  0  0  0  0  0  0  0  0
    9.9945   -8.6969    0.0000 C   0  0  0  0  0  0  0  0  0  0  0  0
    9.2788   -8.2909    0.0000 C   0  0  0  0  0  0  0  0  0  0  0  0
    9.2804   -7.4742    0.0000 C   0  0  0  0  0  0  0  0  0  0  0  0
    9.9911   -7.0625    0.0000 C   0  0  0  0  0  0  0  0  0  0  0  0
    9.9922   -6.2372    0.0000 N   0  0  0  0  0  0  0  0  0  0  0  0
    9.2765   -5.8253    0.0000 C   0  0  0  0  0  0  0  0  0  0  0  0
    8.5595   -6.2386    0.0000 C   0  0  0  0  0  0  0  0  0  0  0  0
   10.7066   -5.8249    0.0000 C   0  0  0  0  0  0  0  0  0  0  0  0
   10.7066   -5.0000    0.0000 O   0  0  0  0  0  0  0  0  0  0  0  0
   11.4210   -6.2373    0.0000 C   0  0  0  0  0  0  0  0  0  0  0  0
   11.5096   -7.0570    0.0000 C   0  0  0  0  0  0  0  0  0  0  0  0
   12.3165   -7.2285    0.0000 S   0  0  0  0  0  0  0  0  0  0  0  0
   12.7289   -6.5141    0.0000 C   0  0  0  0  0  0  0  0  0  0  0  0
   12.1769   -5.9012    0.0000 N   0  0  0  0  0  0  0  0  0  0  0  0
    5.0000   -9.9571    0.0000 C   0  0  0  0  0  0  0  0  0  0  0  0
    4.2860   -9.5442    0.0000 F   0  0  0  0  0  0  0  0  0  0  0  0
    4.9994  -10.7820    0.0000 F   0  0  0  0  0  0  0  0  0  0  0  0
    4.7871   -9.1602    0.0000 F   0  0  0  0  0  0  0  0  0  0  0  0
  2 28  1  0  0  0  0
 28 29  1  0  0  0  0
 28 30  1  0  0  0  0
 28 31  1  0  0  0  0
 15  8  1  0  0  0  0
 10 16  1  0  0  0  0
  3  4  2  0  0  0  0
  7  8  1  0  0  0  0
  7  9  1  0  0  0  0
  4  5  1  0  0  0  0
 10 20  1  0  0  0  0
 16 17  1  0  0  0  0
 17 18  1  0  0  0  0
 18 19  1  0  0  0  0
 19 20  1  0  0  0  0
  9 10  1  0  0  0  0
 18 21  1  0  0  0  0
  2  3  1  0  0  0  0
 21 22  2  0  0  0  0
  8 11  2  0  0  0  0
 21 23  1  0  0  0  0
 23 24  2  0  0  0  0
  5  6  2  0  0  0  0
 11 12  1  0  0  0  0
  6  1  1  0  0  0  0
 12 13  2  0  0  0  0
 24 25  1  0  0  0  0
 25 26  1  0  0  0  0
 26 27  2  0  0  0  0
 27 23  1  0  0  0  0
  1  2  2  0  0  0  0
 13 14  1  0  0  0  0
  5  7  1  0  0  0  0
 14 15  2  0  0  0  0
M  END
> <Molecule Name>
DNDI1465507

> <CDD Number>
CDD-1535656

> <IC50_uM>
0.2185 (n=1)

$$$$

SketchEl molfile

 28 31  0  0  0  0  0  0  0  0999 V2000
    5.7161   -9.8442    0.0000 C   0  0  0  0  0  0  0  0  0  0  0  0
    5.7149  -10.6716    0.0000 C   0  0  0  0  0  0  0  0  0  0  0  0
    6.4298  -11.0845    0.0000 C   0  0  0  0  0  0  0  0  0  0  0  0
    7.1463  -10.6712    0.0000 C   0  0  0  0  0  0  0  0  0  0  0  0
    7.1434   -9.8405    0.0000 C   0  0  0  0  0  0  0  0  0  0  0  0
    6.4280   -9.4314    0.0000 C   0  0  0  0  0  0  0  0  0  0  0  0
    7.8564   -9.4253    0.0000 C   0  0  0  0  0  0  0  0  0  0  0  0
    8.5725   -9.8351    0.0000 C   0  0  0  0  0  0  0  0  0  0  0  0
    7.8532   -8.6002    0.0000 N   0  0  0  0  0  0  0  0  0  0  0  0
    8.5722  -10.6579    0.0000 C   0  0  0  0  0  0  0  0  0  0  0  0
    9.2875  -11.0676    0.0000 N   0  0  0  0  0  0  0  0  0  0  0  0
   10.0014  -10.6524    0.0000 C   0  0  0  0  0  0  0  0  0  0  0  0
    9.9956   -9.8230    0.0000 C   0  0  0  0  0  0  0  0  0  0  0  0
    9.2799   -9.4170    0.0000 C   0  0  0  0  0  0  0  0  0  0  0  0
    8.5675   -8.1895    0.0000 C   0  0  0  0  0  0  0  0  0  0  0  0
    8.5663   -7.3680    0.0000 C   0  0  0  0  0  0  0  0  0  0  0  0
    7.8520   -6.9544    0.0000 N   0  0  0  0  0  0  0  0  0  0  0  0
    7.1373   -7.3683    0.0000 C   0  0  0  0  0  0  0  0  0  0  0  0
    7.1368   -8.1961    0.0000 C   0  0  0  0  0  0  0  0  0  0  0  0
    7.8520   -6.1293    0.0000 C   0  0  0  0  0  0  0  0  0  0  0  0
    8.5666   -5.7168    0.0000 C   0  0  0  0  0  0  0  0  0  0  0  0
    7.1376   -5.7168    0.0000 O   0  0  0  0  0  0  0  0  0  0  0  0
    9.3884   -5.7145    0.0000 C   0  0  0  0  0  0  0  0  0  0  0  0
    8.9758   -5.0000    0.0000 C   0  0  0  0  0  0  0  0  0  0  0  0
    5.0000  -11.0836    0.0000 C   0  0  0  0  0  0  0  0  0  0  0  0
    4.2858  -10.6705    0.0000 F   0  0  0  0  0  0  0  0  0  0  0  0
    4.9994  -11.9087    0.0000 F   0  0  0  0  0  0  0  0  0  0  0  0
    4.7872  -10.2865    0.0000 F   0  0  0  0  0  0  0  0  0  0  0  0
  2 25  1  0  0  0  0
 25 26  1  0  0  0  0
 25 27  1  0  0  0  0
 25 28  1  0  0  0  0
 13 14  2  0  0  0  0
 14  8  1  0  0  0  0
  9 15  1  0  0  0  0
  5  7  1  0  0  0  0
  3  4  2  0  0  0  0
  7  8  1  0  0  0  0
  7  9  1  0  0  0  0
  9 19  1  0  0  0  0
 15 16  1  0  0  0  0
 16 17  1  0  0  0  0
 17 18  1  0  0  0  0
 18 19  1  0  0  0  0
  4  5  1  0  0  0  0
 17 20  1  0  0  0  0
  8 10  2  0  0  0  0
 20 21  1  0  0  0  0
  2  3  1  0  0  0  0
 20 22  2  0  0  0  0
 23 21  1  0  0  0  0
 24 23  1  0  0  0  0
 21 24  1  0  0  0  0
 10 11  1  0  0  0  0
  5  6  2  0  0  0  0
 11 12  2  0  0  0  0
  6  1  1  0  0  0  0
 12 13  1  0  0  0  0
  1  2  2  0  0  0  0
M  END
> <Molecule Name>
DNDI1465508

> <CDD Number>
CDD-1535657

> <IC50_uM>
0.0505 (n=1)

$$$$

SketchEl molfile

 27 29  0  0  0  0  0  0  0  0999 V2000
    5.7158   -9.5384    0.0000 C   0  0  0  0  0  0  0  0  0  0  0  0
    5.7146  -10.3655    0.0000 C   0  0  0  0  0  0  0  0  0  0  0  0
    6.4293  -10.7783    0.0000 C   0  0  0  0  0  0  0  0  0  0  0  0
    7.1456  -10.3651    0.0000 C   0  0  0  0  0  0  0  0  0  0  0  0
    7.1427   -9.5347    0.0000 C   0  0  0  0  0  0  0  0  0  0  0  0
    6.4275   -9.1257    0.0000 C   0  0  0  0  0  0  0  0  0  0  0  0
    7.8554   -9.1196    0.0000 C   0  0  0  0  0  0  0  0  0  0  0  0
    8.5713   -9.5293    0.0000 C   0  0  0  0  0  0  0  0  0  0  0  0
    7.8523   -8.2948    0.0000 N   0  0  0  0  0  0  0  0  0  0  0  0
    8.5711  -10.3518    0.0000 C   0  0  0  0  0  0  0  0  0  0  0  0
    9.2861  -10.7614    0.0000 N   0  0  0  0  0  0  0  0  0  0  0  0
    9.9998  -10.3463    0.0000 C   0  0  0  0  0  0  0  0  0  0  0  0
    9.9940   -9.5172    0.0000 C   0  0  0  0  0  0  0  0  0  0  0  0
    9.2784   -9.1113    0.0000 C   0  0  0  0  0  0  0  0  0  0  0  0
    8.5663   -7.8842    0.0000 C   0  0  0  0  0  0  0  0  0  0  0  0
    8.5652   -7.0630    0.0000 C   0  0  0  0  0  0  0  0  0  0  0  0
    7.8511   -6.6495    0.0000 N   0  0  0  0  0  0  0  0  0  0  0  0
    7.1366   -7.0633    0.0000 C   0  0  0  0  0  0  0  0  0  0  0  0
    7.1360   -7.8908    0.0000 C   0  0  0  0  0  0  0  0  0  0  0  0
    7.8511   -5.8247    0.0000 S   0  0  0  0  0  0  0  0  0  0  0  0
    7.0502   -5.6060    0.0000 O   0  0  0  0  0  0  0  0  0  0  0  0
    8.6457   -5.6060    0.0000 O   0  0  0  0  0  0  0  0  0  0  0  0
    7.8646   -5.0000    0.0000 C   0  0  0  0  0  0  0  0  0  0  0  0
    5.0000  -10.7774    0.0000 C   0  0  0  0  0  0  0  0  0  0  0  0
    4.2861  -10.3644    0.0000 F   0  0  0  0  0  0  0  0  0  0  0  0
    4.9994  -11.6022    0.0000 F   0  0  0  0  0  0  0  0  0  0  0  0
    4.7872   -9.9805    0.0000 F   0  0  0  0  0  0  0  0  0  0  0  0
  2 24  1  0  0  0  0
 24 25  1  0  0  0  0
 24 26  1  0  0  0  0
 24 27  1  0  0  0  0
  1  2  2  0  0  0  0
 13 14  2  0  0  0  0
 14  8  1  0  0  0  0
  9 15  1  0  0  0  0
  5  7  1  0  0  0  0
  3  4  2  0  0  0  0
  7  8  1  0  0  0  0
  7  9  1  0  0  0  0
  9 19  1  0  0  0  0
 15 16  1  0  0  0  0
 16 17  1  0  0  0  0
 17 18  1  0  0  0  0
 18 19  1  0  0  0  0
  4  5  1  0  0  0  0
 17 20  1  0  0  0  0
  8 10  2  0  0  0  0
 20 21  2  0  0  0  0
  2  3  1  0  0  0  0
 20 22  2  0  0  0  0
 10 11  1  0  0  0  0
 20 23  1  0  0  0  0
  5  6  2  0  0  0  0
 11 12  2  0  0  0  0
  6  1  1  0  0  0  0
 12 13  1  0  0  0  0
M  END
> <Molecule Name>
DNDI1465509

> <CDD Number>
CDD-1535658

> <IC50_uM>
0.0765 (n=1)

$$$$

SketchEl molfile

 29 31  0  0  0  0  0  0  0  0999 V2000
    5.7160   -9.1269    0.0000 C   0  0  0  0  0  0  0  0  0  0  0  0
    5.7148   -9.9542    0.0000 C   0  0  0  0  0  0  0  0  0  0  0  0
    6.4295  -10.3671    0.0000 C   0  0  0  0  0  0  0  0  0  0  0  0
    7.1460   -9.9538    0.0000 C   0  0  0  0  0  0  0  0  0  0  0  0
    7.1431   -9.1233    0.0000 C   0  0  0  0  0  0  0  0  0  0  0  0
    6.4277   -8.7142    0.0000 C   0  0  0  0  0  0  0  0  0  0  0  0
    7.8560   -8.7081    0.0000 C   0  0  0  0  0  0  0  0  0  0  0  0
    8.5720   -9.1178    0.0000 C   0  0  0  0  0  0  0  0  0  0  0  0
    7.8529   -7.8831    0.0000 N   0  0  0  0  0  0  0  0  0  0  0  0
    8.5718   -9.9405    0.0000 C   0  0  0  0  0  0  0  0  0  0  0  0
    9.2869  -10.3502    0.0000 N   0  0  0  0  0  0  0  0  0  0  0  0
   10.0008   -9.9350    0.0000 C   0  0  0  0  0  0  0  0  0  0  0  0
    9.9950   -9.1057    0.0000 C   0  0  0  0  0  0  0  0  0  0  0  0
    9.2792   -8.6998    0.0000 C   0  0  0  0  0  0  0  0  0  0  0  0
    8.5670   -7.4724    0.0000 C   0  0  0  0  0  0  0  0  0  0  0  0
    8.5659   -6.6510    0.0000 C   0  0  0  0  0  0  0  0  0  0  0  0
    7.8517   -6.2375    0.0000 N   0  0  0  0  0  0  0  0  0  0  0  0
    7.1370   -6.6513    0.0000 C   0  0  0  0  0  0  0  0  0  0  0  0
    7.1364   -7.4790    0.0000 C   0  0  0  0  0  0  0  0  0  0  0  0
    7.8517   -5.4125    0.0000 C   0  0  0  0  0  0  0  0  0  0  0  0
    7.1372   -5.0000    0.0000 O   0  0  0  0  0  0  0  0  0  0  0  0
    5.0000  -10.3662    0.0000 C   0  0  0  0  0  0  0  0  0  0  0  0
    4.2859   -9.9531    0.0000 F   0  0  0  0  0  0  0  0  0  0  0  0
    4.9994  -11.1912    0.0000 F   0  0  0  0  0  0  0  0  0  0  0  0
    4.7871   -9.5691    0.0000 F   0  0  0  0  0  0  0  0  0  0  0  0
    8.5662   -5.0000    0.0000 C   0  0  0  0  0  0  0  0  0  0  0  0
    9.2806   -5.4125    0.0000 F   0  0  0  0  0  0  0  0  0  0  0  0
    8.5662   -4.1750    0.0000 F   0  0  0  0  0  0  0  0  0  0  0  0
    8.7797   -5.7969    0.0000 F   0  0  0  0  0  0  0  0  0  0  0  0
  2 22  1  0  0  0  0
 22 23  1  0  0  0  0
 22 24  1  0  0  0  0
 22 25  1  0  0  0  0
 20 26  1  0  0  0  0
 26 27  1  0  0  0  0
 26 28  1  0  0  0  0
 26 29  1  0  0  0  0
 14  8  1  0  0  0  0
  9 15  1  0  0  0  0
  5  7  1  0  0  0  0
  3  4  2  0  0  0  0
  7  8  1  0  0  0  0
  7  9  1  0  0  0  0
  9 19  1  0  0  0  0
 15 16  1  0  0  0  0
 16 17  1  0  0  0  0
 17 18  1  0  0  0  0
 18 19  1  0  0  0  0
  4  5  1  0  0  0  0
 17 20  1  0  0  0  0
  8 10  2  0  0  0  0
 20 21  2  0  0  0  0
  2  3  1  0  0  0  0
 10 11  1  0  0  0  0
  5  6  2  0  0  0  0
 11 12  2  0  0  0  0
  6  1  1  0  0  0  0
 12 13  1  0  0  0  0
  1  2  2  0  0  0  0
 13 14  2  0  0  0  0
M  END
> <Molecule Name>
DNDI1465510

> <CDD Number>
CDD-1535659

> <IC50_uM>
0.321 (n=1)

$$$$

SketchEl molfile

 26 29  0  0  0  0  0  0  0  0999 V2000
    7.1463   -9.8428    0.0000 C   0  0  0  0  0  0  0  0  0  0  0  0
    7.8548   -6.1294    0.0000 C   0  0  0  0  0  0  0  0  0  0  0  0
    7.8548   -6.9546    0.0000 N   0  0  0  0  0  0  0  0  0  0  0  0
    7.8590   -9.4260    0.0000 C   0  0  0  0  0  0  0  0  0  0  0  0
    7.8548   -8.6008    0.0000 N   0  0  0  0  0  0  0  0  0  0  0  0
    8.5675   -5.7168    0.0000 C   0  0  0  0  0  0  0  0  0  0  0  0
    6.4295   -9.4302    0.0000 C   0  0  0  0  0  0  0  0  0  0  0  0
    8.5758   -9.8344    0.0000 C   0  0  0  0  0  0  0  0  0  0  0  0
    9.3885   -5.7127    0.0000 C   0  0  0  0  0  0  0  0  0  0  0  0
    8.9759   -5.0000    0.0000 C   0  0  0  0  0  0  0  0  0  0  0  0
    7.1463  -10.6721    0.0000 C   0  0  0  0  0  0  0  0  0  0  0  0
    5.7168   -9.8469    0.0000 C   0  0  0  0  0  0  0  0  0  0  0  0
    8.5675   -7.3672    0.0000 C   0  0  0  0  0  0  0  0  0  0  0  0
    7.1380   -7.3672    0.0000 C   0  0  0  0  0  0  0  0  0  0  0  0
    8.5675   -8.1882    0.0000 C   0  0  0  0  0  0  0  0  0  0  0  0
    7.1380   -8.1966    0.0000 C   0  0  0  0  0  0  0  0  0  0  0  0
    7.1380   -5.7168    0.0000 O   0  0  0  0  0  0  0  0  0  0  0  0
    9.2885  -11.0680    0.0000 N   0  0  0  0  0  0  0  0  0  0  0  0
    9.9970   -9.8219    0.0000 N   0  0  0  0  0  0  0  0  0  0  0  0
   10.0053  -10.6513    0.0000 C   0  0  0  0  0  0  0  0  0  0  0  0
    5.7168  -10.6721    0.0000 C   0  0  0  0  0  0  0  0  0  0  0  0
    6.4253   -8.6050    0.0000 F   0  0  0  0  0  0  0  0  0  0  0  0
    6.4295  -11.0847    0.0000 C   0  0  0  0  0  0  0  0  0  0  0  0
    9.2801   -9.4177    0.0000 C   0  0  0  0  0  0  0  0  0  0  0  0
    8.5758  -10.6596    0.0000 C   0  0  0  0  0  0  0  0  0  0  0  0
    5.0000  -11.0847    0.0000 Cl  0  0  0  0  0  0  0  0  0  0  0  0
  2  3  1  0  0  0  0
  3 14  1  0  0  0  0
  4  1  1  0  0  0  0
  5  4  1  0  0  0  0
  6  2  1  0  0  0  0
  7  1  2  0  0  0  0
  8  4  1  0  0  0  0
  9  6  1  0  0  0  0
 10  6  1  0  0  0  0
 11  1  1  0  0  0  0
 12  7  1  0  0  0  0
 13 15  1  0  0  0  0
 14 16  1  0  0  0  0
 15  5  1  0  0  0  0
 16  5  1  0  0  0  0
 17  2  2  0  0  0  0
 18 25  1  0  0  0  0
 19 24  2  0  0  0  0
 20 18  2  0  0  0  0
 21 12  2  0  0  0  0
 22  7  1  0  0  0  0
 23 11  2  0  0  0  0
 24  8  1  0  0  0  0
 25  8  2  0  0  0  0
 26 21  1  0  0  0  0
 23 21  1  0  0  0  0
  3 13  1  0  0  0  0
 19 20  1  0  0  0  0
  9 10  1  0  0  0  0
M  END
> <Molecule Name>
DNDI1465511

> <CDD Number>
CDD-1535660

> <IC50_uM>
0.175198458897332 ร/รท 1.03489804817802 (n=2)

$$$$

SketchEl molfile

 29 32  0  0  0  0  0  0  0  0999 V2000
    8.5655   -6.7494    0.0000 C   0  0  0  0  0  0  0  0  0  0  0  0
    9.3194   -7.0826    0.0000 N   0  0  0  0  0  0  0  0  0  0  0  0
    7.8532   -7.1617    0.0000 C   0  0  0  0  0  0  0  0  0  0  0  0
    7.1451  -10.8730    0.0000 C   0  0  0  0  0  0  0  0  0  0  0  0
    8.6488   -5.9246    0.0000 C   0  0  0  0  0  0  0  0  0  0  0  0
    7.8532   -7.9864    0.0000 N   0  0  0  0  0  0  0  0  0  0  0  0
    7.8532   -9.6317    0.0000 N   0  0  0  0  0  0  0  0  0  0  0  0
    7.8574  -10.4564    0.0000 C   0  0  0  0  0  0  0  0  0  0  0  0
    6.4287  -10.4606    0.0000 C   0  0  0  0  0  0  0  0  0  0  0  0
    9.8692   -6.4703    0.0000 O   0  0  0  0  0  0  0  0  0  0  0  0
    9.4568   -5.7539    0.0000 C   0  0  0  0  0  0  0  0  0  0  0  0
    7.1451  -11.7018    0.0000 C   0  0  0  0  0  0  0  0  0  0  0  0
    5.7164  -10.8730    0.0000 C   0  0  0  0  0  0  0  0  0  0  0  0
    8.5738  -10.8646    0.0000 C   0  0  0  0  0  0  0  0  0  0  0  0
    8.5655   -8.3988    0.0000 C   0  0  0  0  0  0  0  0  0  0  0  0
    7.1368   -8.3988    0.0000 C   0  0  0  0  0  0  0  0  0  0  0  0
    7.1368   -6.7494    0.0000 O   0  0  0  0  0  0  0  0  0  0  0  0
    7.1368   -9.2277    0.0000 C   0  0  0  0  0  0  0  0  0  0  0  0
    8.5655   -9.2194    0.0000 C   0  0  0  0  0  0  0  0  0  0  0  0
    9.2860  -12.0975    0.0000 N   0  0  0  0  0  0  0  0  0  0  0  0
    5.7164  -11.7018    0.0000 C   0  0  0  0  0  0  0  0  0  0  0  0
    6.4245   -9.6359    0.0000 F   0  0  0  0  0  0  0  0  0  0  0  0
    6.4287  -12.1142    0.0000 C   0  0  0  0  0  0  0  0  0  0  0  0
    5.0000  -12.1142    0.0000 Cl  0  0  0  0  0  0  0  0  0  0  0  0
    8.5738  -11.6893    0.0000 C   0  0  0  0  0  0  0  0  0  0  0  0
    9.7942   -5.0000    0.0000 C   0  0  0  0  0  0  0  0  0  0  0  0
    9.2777  -10.4481    0.0000 C   0  0  0  0  0  0  0  0  0  0  0  0
   10.0025  -11.6810    0.0000 C   0  0  0  0  0  0  0  0  0  0  0  0
    9.9941  -10.8521    0.0000 C   0  0  0  0  0  0  0  0  0  0  0  0
  2  1  2  0  0  0  0
  3  1  1  0  0  0  0
  4  8  1  0  0  0  0
  5  1  1  0  0  0  0
  6  3  1  0  0  0  0
  7 18  1  0  0  0  0
  8  7  1  0  0  0  0
  9  4  2  0  0  0  0
 10  2  1  0  0  0  0
 11  5  2  0  0  0  0
 12  4  1  0  0  0  0
 13  9  1  0  0  0  0
 14  8  1  0  0  0  0
 15  6  1  0  0  0  0
 16  6  1  0  0  0  0
 17  3  2  0  0  0  0
 18 16  1  0  0  0  0
 19 15  1  0  0  0  0
 20 25  1  0  0  0  0
 21 13  2  0  0  0  0
 22  9  1  0  0  0  0
 23 12  2  0  0  0  0
 24 21  1  0  0  0  0
 25 14  2  0  0  0  0
 26 11  1  0  0  0  0
 27 14  1  0  0  0  0
 28 29  1  0  0  0  0
 29 27  2  0  0  0  0
 11 10  1  0  0  0  0
 19  7  1  0  0  0  0
 23 21  1  0  0  0  0
 28 20  2  0  0  0  0
M  END
> <Molecule Name>
DNDI1465512

> <CDD Number>
CDD-1535661

> <IC50_uM>
0.0665 (n=1)

$$$$

SketchEl molfile

 30 33  0  0  0  0  0  0  0  0999 V2000
   11.4221   -5.8252    0.0000 C   0  0  0  0  0  0  0  0  0  0  0  0
   10.7095   -6.2378    0.0000 N   0  0  0  0  0  0  0  0  0  0  0  0
    8.5757   -8.3048    0.0000 C   0  0  0  0  0  0  0  0  0  0  0  0
    5.0000  -10.3719    0.0000 N   0  0  0  0  0  0  0  0  0  0  0  0
    8.5715   -7.4797    0.0000 N   0  0  0  0  0  0  0  0  0  0  0  0
    5.7168   -9.9635    0.0000 C   0  0  0  0  0  0  0  0  0  0  0  0
    9.2925   -8.7132    0.0000 C   0  0  0  0  0  0  0  0  0  0  0  0
    7.8631   -8.7216    0.0000 C   0  0  0  0  0  0  0  0  0  0  0  0
    9.9927   -5.8293    0.0000 C   0  0  0  0  0  0  0  0  0  0  0  0
   10.7053   -7.0671    0.0000 C   0  0  0  0  0  0  0  0  0  0  0  0
   11.4221   -5.0000    0.0000 O   0  0  0  0  0  0  0  0  0  0  0  0
   12.1389   -6.2378    0.0000 C   0  0  0  0  0  0  0  0  0  0  0  0
   10.0052   -9.9468    0.0000 N   0  0  0  0  0  0  0  0  0  0  0  0
    9.2758   -6.2419    0.0000 C   0  0  0  0  0  0  0  0  0  0  0  0
    9.9968   -7.4755    0.0000 C   0  0  0  0  0  0  0  0  0  0  0  0
    9.2842   -7.0629    0.0000 C   0  0  0  0  0  0  0  0  0  0  0  0
    7.1463   -8.3090    0.0000 C   0  0  0  0  0  0  0  0  0  0  0  0
    7.8631   -9.5509    0.0000 C   0  0  0  0  0  0  0  0  0  0  0  0
    6.4336   -9.5509    0.0000 C   0  0  0  0  0  0  0  0  0  0  0  0
    6.4336   -8.7216    0.0000 C   0  0  0  0  0  0  0  0  0  0  0  0
    7.1463   -9.9635    0.0000 C   0  0  0  0  0  0  0  0  0  0  0  0
    9.2925   -9.5384    0.0000 C   0  0  0  0  0  0  0  0  0  0  0  0
    9.9968   -8.2965    0.0000 C   0  0  0  0  0  0  0  0  0  0  0  0
   10.7220   -9.5301    0.0000 C   0  0  0  0  0  0  0  0  0  0  0  0
   12.1347   -7.0629    0.0000 C   0  0  0  0  0  0  0  0  0  0  0  0
   12.8474   -5.8252    0.0000 C   0  0  0  0  0  0  0  0  0  0  0  0
   10.7136   -8.7007    0.0000 C   0  0  0  0  0  0  0  0  0  0  0  0
   13.5600   -6.2336    0.0000 C   0  0  0  0  0  0  0  0  0  0  0  0
   12.8474   -7.4755    0.0000 C   0  0  0  0  0  0  0  0  0  0  0  0
   13.5642   -7.0629    0.0000 C   0  0  0  0  0  0  0  0  0  0  0  0
  2  1  1  0  0  0  0
  3  5  1  0  0  0  0
  4  6  3  0  0  0  0
  5 16  1  0  0  0  0
  6 19  1  0  0  0  0
  7  3  1  0  0  0  0
  8  3  1  0  0  0  0
  9  2  1  0  0  0  0
 10  2  1  0  0  0  0
 11  1  2  0  0  0  0
 12  1  1  0  0  0  0
 13 22  1  0  0  0  0
 14  9  1  0  0  0  0
 15 10  1  0  0  0  0
 16 14  1  0  0  0  0
 17  8  2  0  0  0  0
 18  8  1  0  0  0  0
 19 20  2  0  0  0  0
 20 17  1  0  0  0  0
 21 18  2  0  0  0  0
 22  7  2  0  0  0  0
 23  7  1  0  0  0  0
 24 27  1  0  0  0  0
 25 12  2  0  0  0  0
 26 12  1  0  0  0  0
 27 23  2  0  0  0  0
 28 26  2  0  0  0  0
 29 25  1  0  0  0  0
 30 28  1  0  0  0  0
 30 29  2  0  0  0  0
 15 16  1  0  0  0  0
 21 19  1  0  0  0  0
 24 13  2  0  0  0  0
M  END
> <Molecule Name>
DNDI1465513

> <CDD Number>
CDD-1535662

> <IC50_uM>
0.433 (n=1)

$$$$

SketchEl molfile

 30 33  0  0  0  0  0  0  0  0999 V2000
    9.2794   -8.2960    0.0000 C   0  0  0  0  0  0  0  0  0  0  0  0
    9.2752   -7.4710    0.0000 N   0  0  0  0  0  0  0  0  0  0  0  0
    7.8585  -10.7712    0.0000 C   0  0  0  0  0  0  0  0  0  0  0  0
    7.8543   -9.9461    0.0000 C   0  0  0  0  0  0  0  0  0  0  0  0
    8.5669   -8.7127    0.0000 C   0  0  0  0  0  0  0  0  0  0  0  0
    8.5710   -9.5336    0.0000 C   0  0  0  0  0  0  0  0  0  0  0  0
    8.5752  -11.1795    0.0000 C   0  0  0  0  0  0  0  0  0  0  0  0
    7.1460  -11.1879    0.0000 C   0  0  0  0  0  0  0  0  0  0  0  0
    9.9961   -7.0626    0.0000 C   0  0  0  0  0  0  0  0  0  0  0  0
    8.5669   -7.0668    0.0000 C   0  0  0  0  0  0  0  0  0  0  0  0
    9.9961   -8.7086    0.0000 O   0  0  0  0  0  0  0  0  0  0  0  0
    9.2877  -12.4129    0.0000 N   0  0  0  0  0  0  0  0  0  0  0  0
    8.5669   -6.2376    0.0000 C   0  0  0  0  0  0  0  0  0  0  0  0
    9.9961   -6.2376    0.0000 C   0  0  0  0  0  0  0  0  0  0  0  0
    6.4292  -10.7753    0.0000 C   0  0  0  0  0  0  0  0  0  0  0  0
    7.1460  -12.0171    0.0000 C   0  0  0  0  0  0  0  0  0  0  0  0
    7.8543  -11.5921    0.0000 O   0  0  0  0  0  0  0  0  0  0  0  0
    9.2794   -5.8251    0.0000 C   0  0  0  0  0  0  0  0  0  0  0  0
    5.7167  -12.0171    0.0000 C   0  0  0  0  0  0  0  0  0  0  0  0
    5.7167  -11.1879    0.0000 C   0  0  0  0  0  0  0  0  0  0  0  0
    6.4292  -12.4296    0.0000 C   0  0  0  0  0  0  0  0  0  0  0  0
    8.5752  -12.0046    0.0000 C   0  0  0  0  0  0  0  0  0  0  0  0
    5.0000  -12.4296    0.0000 Cl  0  0  0  0  0  0  0  0  0  0  0  0
    7.1418   -9.5419    0.0000 C   0  0  0  0  0  0  0  0  0  0  0  0
    7.8502   -8.3002    0.0000 C   0  0  0  0  0  0  0  0  0  0  0  0
    9.2794   -5.0000    0.0000 O   0  0  0  0  0  0  0  0  0  0  0  0
    7.1335   -8.7211    0.0000 C   0  0  0  0  0  0  0  0  0  0  0  0
    9.2794  -10.7628    0.0000 C   0  0  0  0  0  0  0  0  0  0  0  0
   10.0044  -11.9962    0.0000 C   0  0  0  0  0  0  0  0  0  0  0  0
    9.9961  -11.1670    0.0000 C   0  0  0  0  0  0  0  0  0  0  0  0
  2  1  1  0  0  0  0
  3  4  1  0  0  0  0
  4  6  2  0  0  0  0
  5  1  1  0  0  0  0
  6  5  1  0  0  0  0
  7  3  1  0  0  0  0
  8  3  1  0  0  0  0
  9  2  1  0  0  0  0
 10  2  1  0  0  0  0
 11  1  2  0  0  0  0
 12 22  1  0  0  0  0
 13 10  1  0  0  0  0
 14  9  1  0  0  0  0
 15  8  2  0  0  0  0
 16  8  1  0  0  0  0
 17  3  1  0  0  0  0
 18 13  1  0  0  0  0
 19 20  2  0  0  0  0
 20 15  1  0  0  0  0
 21 16  2  0  0  0  0
 22  7  2  0  0  0  0
 23 19  1  0  0  0  0
 24 27  2  0  0  0  0
 25  5  2  0  0  0  0
 26 18  1  0  0  0  0
 27 25  1  0  0  0  0
 28  7  1  0  0  0  0
 29 30  1  0  0  0  0
 30 28  2  0  0  0  0
 18 14  1  0  0  0  0
  4 24  1  0  0  0  0
 21 19  1  0  0  0  0
 29 12  2  0  0  0  0
M  END
> <Molecule Name>
DNDI1467764

> <CDD Number>
CDD-1535663

> <IC50_uM>
0.1185 (n=1)

$$$$

SketchEl molfile

 26 29  0  0  0  0  0  0  0  0999 V2000
    7.8451  -10.2563    0.0000 C   0  0  0  0  0  0  0  0  0  0  0  0
    7.8409   -9.4303    0.0000 C   0  0  0  0  0  0  0  0  0  0  0  0
    7.8326   -7.7825    0.0000 C   0  0  0  0  0  0  0  0  0  0  0  0
    8.5501   -8.1913    0.0000 N   0  0  0  0  0  0  0  0  0  0  0  0
    7.1192   -8.2038    0.0000 N   0  0  0  0  0  0  0  0  0  0  0  0
    8.5626  -10.6651    0.0000 C   0  0  0  0  0  0  0  0  0  0  0  0
    7.1317  -10.6734    0.0000 C   0  0  0  0  0  0  0  0  0  0  0  0
    8.5376   -5.7133    0.0000 C   0  0  0  0  0  0  0  0  0  0  0  0
    7.1234   -9.0256    0.0000 C   0  0  0  0  0  0  0  0  0  0  0  0
    8.5543   -9.0173    0.0000 C   0  0  0  0  0  0  0  0  0  0  0  0
    8.9464   -5.0000    0.0000 C   0  0  0  0  0  0  0  0  0  0  0  0
    8.1204   -5.0041    0.0000 C   0  0  0  0  0  0  0  0  0  0  0  0
    9.2760  -11.8999    0.0000 N   0  0  0  0  0  0  0  0  0  0  0  0
    7.8284   -6.9565    0.0000 O   0  0  0  0  0  0  0  0  0  0  0  0
    6.4184  -10.2646    0.0000 C   0  0  0  0  0  0  0  0  0  0  0  0
    7.1359  -11.4994    0.0000 C   0  0  0  0  0  0  0  0  0  0  0  0
    7.8409  -11.0823    0.0000 O   0  0  0  0  0  0  0  0  0  0  0  0
    8.5417   -6.5393    0.0000 C   0  0  0  0  0  0  0  0  0  0  0  0
    5.7134  -11.5078    0.0000 C   0  0  0  0  0  0  0  0  0  0  0  0
    6.4267  -11.9124    0.0000 C   0  0  0  0  0  0  0  0  0  0  0  0
    5.7050  -10.6818    0.0000 C   0  0  0  0  0  0  0  0  0  0  0  0
    8.5626  -11.4911    0.0000 C   0  0  0  0  0  0  0  0  0  0  0  0
    5.0000  -11.9291    0.0000 Cl  0  0  0  0  0  0  0  0  0  0  0  0
    9.2676  -10.2479    0.0000 C   0  0  0  0  0  0  0  0  0  0  0  0
    9.9935  -11.4827    0.0000 C   0  0  0  0  0  0  0  0  0  0  0  0
    9.9851  -10.6526    0.0000 C   0  0  0  0  0  0  0  0  0  0  0  0
  2  1  1  0  0  0  0
  3  5  1  0  0  0  0
  4 10  1  0  0  0  0
  5  9  2  0  0  0  0
  6  1  1  0  0  0  0
  7  1  1  0  0  0  0
  8 18  1  0  0  0  0
  9  2  1  0  0  0  0
 10  2  2  0  0  0  0
 11  8  1  0  0  0  0
 12  8  1  0  0  0  0
 13 22  1  0  0  0  0
 14  3  1  0  0  0  0
 15  7  1  0  0  0  0
 16  7  2  0  0  0  0
 17  1  1  0  0  0  0
 18 14  1  0  0  0  0
 19 21  1  0  0  0  0
 20 16  1  0  0  0  0
 21 15  2  0  0  0  0
 22  6  2  0  0  0  0
 23 19  1  0  0  0  0
 24  6  1  0  0  0  0
 25 13  2  0  0  0  0
 26 24  2  0  0  0  0
  3  4  2  0  0  0  0
 26 25  1  0  0  0  0
 20 19  2  0  0  0  0
 11 12  1  0  0  0  0
M  END
> <Molecule Name>
DNDI1467765

> <CDD Number>
CDD-1535664

> <IC50_uM>
0.025 (n=1)

$$$$

SketchEl molfile

 25 27  0  0  0  0  0  0  0  0999 V2000
    7.8583   -8.3000    0.0000 C   0  0  0  0  0  0  0  0  0  0  0  0
    7.1458   -8.7166    0.0000 C   0  0  0  0  0  0  0  0  0  0  0  0
    7.8541   -7.4750    0.0000 C   0  0  0  0  0  0  0  0  0  0  0  0
    6.4292   -8.3041    0.0000 C   0  0  0  0  0  0  0  0  0  0  0  0
    9.2791   -5.8250    0.0000 C   0  0  0  0  0  0  0  0  0  0  0  0
    8.5708   -7.0625    0.0000 C   0  0  0  0  0  0  0  0  0  0  0  0
    8.5666   -6.2417    0.0000 C   0  0  0  0  0  0  0  0  0  0  0  0
    7.1458   -9.5458    0.0000 C   0  0  0  0  0  0  0  0  0  0  0  0
    8.5750   -8.7083    0.0000 C   0  0  0  0  0  0  0  0  0  0  0  0
    5.7167   -8.7166    0.0000 C   0  0  0  0  0  0  0  0  0  0  0  0
    9.9958   -6.2375    0.0000 O   0  0  0  0  0  0  0  0  0  0  0  0
    9.2875   -9.9416    0.0000 N   0  0  0  0  0  0  0  0  0  0  0  0
    5.7167   -9.5458    0.0000 C   0  0  0  0  0  0  0  0  0  0  0  0
    7.8541   -9.1208    0.0000 O   0  0  0  0  0  0  0  0  0  0  0  0
    9.2750   -5.0000    0.0000 N   0  0  0  0  0  0  0  0  0  0  0  0
    6.4250   -7.4792    0.0000 F   0  0  0  0  0  0  0  0  0  0  0  0
    6.4292   -9.9583    0.0000 C   0  0  0  0  0  0  0  0  0  0  0  0
    8.5750   -9.5333    0.0000 C   0  0  0  0  0  0  0  0  0  0  0  0
    5.0000   -9.9583    0.0000 Cl  0  0  0  0  0  0  0  0  0  0  0  0
    7.1416   -7.0708    0.0000 C   0  0  0  0  0  0  0  0  0  0  0  0
    7.8500   -5.8292    0.0000 C   0  0  0  0  0  0  0  0  0  0  0  0
    7.1333   -6.2500    0.0000 C   0  0  0  0  0  0  0  0  0  0  0  0
    9.2791   -8.2916    0.0000 C   0  0  0  0  0  0  0  0  0  0  0  0
   10.0041   -9.5250    0.0000 C   0  0  0  0  0  0  0  0  0  0  0  0
    9.9958   -8.6958    0.0000 C   0  0  0  0  0  0  0  0  0  0  0  0
  2  1  1  0  0  0  0
  3  1  1  0  0  0  0
  4  2  2  0  0  0  0
  5  7  1  0  0  0  0
  6  3  2  0  0  0  0
  7  6  1  0  0  0  0
  8  2  1  0  0  0  0
  9  1  1  0  0  0  0
 10  4  1  0  0  0  0
 11  5  2  0  0  0  0
 12 18  1  0  0  0  0
 13 10  2  0  0  0  0
 14  1  1  0  0  0  0
 15  5  1  0  0  0  0
 16  4  1  0  0  0  0
 17  8  2  0  0  0  0
 18  9  2  0  0  0  0
 19 13  1  0  0  0  0
 20  3  1  0  0  0  0
 21 22  1  0  0  0  0
 22 20  2  0  0  0  0
 23  9  1  0  0  0  0
 24 12  2  0  0  0  0
 25 23  2  0  0  0  0
 25 24  1  0  0  0  0
 17 13  1  0  0  0  0
 21  7  2  0  0  0  0
M  END
> <Molecule Name>
DNDI1467766

> <CDD Number>
CDD-1535665

> <IC50_uM>
0.0245 (n=1)

$$$$

SketchEl molfile

 27 29  0  0  0  0  0  0  0  0999 V2000
    7.1455   -9.9493    0.0000 C   0  0  0  0  0  0  0  0  0  0  0  0
    7.8538   -6.2373    0.0000 C   0  0  0  0  0  0  0  0  0  0  0  0
    7.8538   -7.0622    0.0000 N   0  0  0  0  0  0  0  0  0  0  0  0
    7.8579   -9.5327    0.0000 C   0  0  0  0  0  0  0  0  0  0  0  0
    7.8538   -8.7078    0.0000 N   0  0  0  0  0  0  0  0  0  0  0  0
    6.4290   -9.5369    0.0000 C   0  0  0  0  0  0  0  0  0  0  0  0
    8.5745   -9.9410    0.0000 C   0  0  0  0  0  0  0  0  0  0  0  0
    7.1455  -10.7784    0.0000 C   0  0  0  0  0  0  0  0  0  0  0  0
    5.7166   -9.9493    0.0000 C   0  0  0  0  0  0  0  0  0  0  0  0
    8.5662   -5.8249    0.0000 C   0  0  0  0  0  0  0  0  0  0  0  0
    8.5662   -7.4747    0.0000 C   0  0  0  0  0  0  0  0  0  0  0  0
    7.1372   -7.4747    0.0000 C   0  0  0  0  0  0  0  0  0  0  0  0
    8.5662   -8.2954    0.0000 C   0  0  0  0  0  0  0  0  0  0  0  0
    7.1372   -8.3037    0.0000 C   0  0  0  0  0  0  0  0  0  0  0  0
    7.1372   -5.8249    0.0000 O   0  0  0  0  0  0  0  0  0  0  0  0
    9.2869  -11.1741    0.0000 N   0  0  0  0  0  0  0  0  0  0  0  0
    9.9951   -9.9285    0.0000 N   0  0  0  0  0  0  0  0  0  0  0  0
   10.0035  -10.7575    0.0000 C   0  0  0  0  0  0  0  0  0  0  0  0
    5.7166  -10.7784    0.0000 C   0  0  0  0  0  0  0  0  0  0  0  0
    6.4248   -8.7120    0.0000 F   0  0  0  0  0  0  0  0  0  0  0  0
    6.4290  -11.1908    0.0000 C   0  0  0  0  0  0  0  0  0  0  0  0
    9.2786   -9.5244    0.0000 C   0  0  0  0  0  0  0  0  0  0  0  0
    8.5745  -10.7659    0.0000 C   0  0  0  0  0  0  0  0  0  0  0  0
    5.0000  -11.1908    0.0000 Cl  0  0  0  0  0  0  0  0  0  0  0  0
    9.2827   -6.2373    0.0000 C   0  0  0  0  0  0  0  0  0  0  0  0
    8.5662   -5.0000    0.0000 C   0  0  0  0  0  0  0  0  0  0  0  0
    8.7786   -6.6206    0.0000 C   0  0  0  0  0  0  0  0  0  0  0  0
  2  3  1  0  0  0  0
  3 12  1  0  0  0  0
  4  1  1  0  0  0  0
  5  4  1  0  0  0  0
  6  1  2  0  0  0  0
  7  4  1  0  0  0  0
  8  1  1  0  0  0  0
  9  6  1  0  0  0  0
 10  2  1  0  0  0  0
 11 13  1  0  0  0  0
 12 14  1  0  0  0  0
 13  5  1  0  0  0  0
 14  5  1  0  0  0  0
 15  2  2  0  0  0  0
 16 23  1  0  0  0  0
 17 22  2  0  0  0  0
 18 16  2  0  0  0  0
 19  9  2  0  0  0  0
 20  6  1  0  0  0  0
 21  8  2  0  0  0  0
 22  7  1  0  0  0  0
 23  7  2  0  0  0  0
 24 19  1  0  0  0  0
 25 10  1  0  0  0  0
 26 10  1  0  0  0  0
 27 10  1  0  0  0  0
 21 19  1  0  0  0  0
  3 11  1  0  0  0  0
 17 18  1  0  0  0  0
M  END
> <Molecule Name>
DNDI1467767

> <CDD Number>
CDD-1535666

> <IC50_uM>
0.0805 (n=1)

$$$$

SketchEl molfile

 27 29  0  0  0  0  0  0  0  0999 V2000
    7.1455   -9.9493    0.0000 C   0  0  0  0  0  0  0  0  0  0  0  0
    7.8538   -6.2373    0.0000 C   0  0  0  0  0  0  0  0  0  0  0  0
    7.8538   -7.0622    0.0000 N   0  0  0  0  0  0  0  0  0  0  0  0
    7.8538   -8.7078    0.0000 N   0  0  0  0  0  0  0  0  0  0  0  0
    7.8579   -9.5327    0.0000 C   0  0  0  0  0  0  0  0  0  0  0  0
    6.4290   -9.5369    0.0000 C   0  0  0  0  0  0  0  0  0  0  0  0
    7.1455  -10.7784    0.0000 C   0  0  0  0  0  0  0  0  0  0  0  0
    5.7166   -9.9493    0.0000 C   0  0  0  0  0  0  0  0  0  0  0  0
    8.5662   -5.8249    0.0000 C   0  0  0  0  0  0  0  0  0  0  0  0
    8.5745   -9.9410    0.0000 C   0  0  0  0  0  0  0  0  0  0  0  0
    8.5662   -7.4747    0.0000 C   0  0  0  0  0  0  0  0  0  0  0  0
    7.1372   -7.4747    0.0000 C   0  0  0  0  0  0  0  0  0  0  0  0
    8.5662   -8.2954    0.0000 C   0  0  0  0  0  0  0  0  0  0  0  0
    7.1372   -8.3037    0.0000 C   0  0  0  0  0  0  0  0  0  0  0  0
    7.1372   -5.8249    0.0000 O   0  0  0  0  0  0  0  0  0  0  0  0
    9.2869  -11.1741    0.0000 N   0  0  0  0  0  0  0  0  0  0  0  0
    5.7166  -10.7784    0.0000 C   0  0  0  0  0  0  0  0  0  0  0  0
    6.4248   -8.7120    0.0000 F   0  0  0  0  0  0  0  0  0  0  0  0
    6.4290  -11.1908    0.0000 C   0  0  0  0  0  0  0  0  0  0  0  0
    5.0000  -11.1908    0.0000 Cl  0  0  0  0  0  0  0  0  0  0  0  0
    8.5745  -10.7659    0.0000 C   0  0  0  0  0  0  0  0  0  0  0  0
    9.2827   -6.2373    0.0000 C   0  0  0  0  0  0  0  0  0  0  0  0
    8.5662   -5.0000    0.0000 C   0  0  0  0  0  0  0  0  0  0  0  0
    8.7786   -6.6206    0.0000 C   0  0  0  0  0  0  0  0  0  0  0  0
    9.2786   -9.5244    0.0000 C   0  0  0  0  0  0  0  0  0  0  0  0
   10.0035  -10.7575    0.0000 C   0  0  0  0  0  0  0  0  0  0  0  0
    9.9951   -9.9285    0.0000 C   0  0  0  0  0  0  0  0  0  0  0  0
  2  3  1  0  0  0  0
  3 12  1  0  0  0  0
  4  5  1  0  0  0  0
  5  1  1  0  0  0  0
  6  1  2  0  0  0  0
  7  1  1  0  0  0  0
  8  6  1  0  0  0  0
  9  2  1  0  0  0  0
 10  5  1  0  0  0  0
 11 13  1  0  0  0  0
 12 14  1  0  0  0  0
 13  4  1  0  0  0  0
 14  4  1  0  0  0  0
 15  2  2  0  0  0  0
 16 21  1  0  0  0  0
 17  8  2  0  0  0  0
 18  6  1  0  0  0  0
 19  7  2  0  0  0  0
 20 17  1  0  0  0  0
 21 10  2  0  0  0  0
 22  9  1  0  0  0  0
 23  9  1  0  0  0  0
 24  9  1  0  0  0  0
 25 10  1  0  0  0  0
 26 16  2  0  0  0  0
 27 25  2  0  0  0  0
 19 17  1  0  0  0  0
  3 11  1  0  0  0  0
 27 26  1  0  0  0  0
M  END
> <Molecule Name>
DNDI1467768

> <CDD Number>
CDD-1535667

> <IC50_uM>
0.019 (n=1)

$$$$

SketchEl molfile

 29 31  0  0  0  0  0  0  0  0999 V2000
   11.4252   -5.8292    0.0000 C   0  0  0  0  0  0  0  0  0  0  0  0
   10.7127   -6.2417    0.0000 N   0  0  0  0  0  0  0  0  0  0  0  0
   12.1419   -6.2417    0.0000 N   0  0  0  0  0  0  0  0  0  0  0  0
    8.5793   -8.3084    0.0000 C   0  0  0  0  0  0  0  0  0  0  0  0
    5.0000  -10.3710    0.0000 N   0  0  0  0  0  0  0  0  0  0  0  0
    8.5751   -7.4834    0.0000 N   0  0  0  0  0  0  0  0  0  0  0  0
    5.7209   -9.9668    0.0000 C   0  0  0  0  0  0  0  0  0  0  0  0
    9.2960   -8.7168    0.0000 C   0  0  0  0  0  0  0  0  0  0  0  0
    7.8668   -8.7251    0.0000 C   0  0  0  0  0  0  0  0  0  0  0  0
   11.4252   -5.0042    0.0000 O   0  0  0  0  0  0  0  0  0  0  0  0
    9.9960   -5.8333    0.0000 C   0  0  0  0  0  0  0  0  0  0  0  0
   10.7085   -7.0709    0.0000 C   0  0  0  0  0  0  0  0  0  0  0  0
   12.8503   -5.8208    0.0000 C   0  0  0  0  0  0  0  0  0  0  0  0
   10.0085   -9.9502    0.0000 N   0  0  0  0  0  0  0  0  0  0  0  0
    9.2793   -6.2459    0.0000 C   0  0  0  0  0  0  0  0  0  0  0  0
   10.0002   -7.4792    0.0000 C   0  0  0  0  0  0  0  0  0  0  0  0
    9.2876   -7.0667    0.0000 C   0  0  0  0  0  0  0  0  0  0  0  0
    7.8668   -9.5543    0.0000 C   0  0  0  0  0  0  0  0  0  0  0  0
    7.1501   -8.3126    0.0000 C   0  0  0  0  0  0  0  0  0  0  0  0
    6.4375   -9.5543    0.0000 C   0  0  0  0  0  0  0  0  0  0  0  0
    7.1501   -9.9668    0.0000 C   0  0  0  0  0  0  0  0  0  0  0  0
    6.4375   -8.7293    0.0000 C   0  0  0  0  0  0  0  0  0  0  0  0
    9.2960   -9.5418    0.0000 C   0  0  0  0  0  0  0  0  0  0  0  0
   10.0002   -8.3001    0.0000 C   0  0  0  0  0  0  0  0  0  0  0  0
   10.7252   -9.5335    0.0000 C   0  0  0  0  0  0  0  0  0  0  0  0
   13.5711   -6.2292    0.0000 C   0  0  0  0  0  0  0  0  0  0  0  0
   12.8419   -5.0000    0.0000 C   0  0  0  0  0  0  0  0  0  0  0  0
   13.0753   -6.6167    0.0000 C   0  0  0  0  0  0  0  0  0  0  0  0
   10.7169   -8.7043    0.0000 C   0  0  0  0  0  0  0  0  0  0  0  0
  2  1  1  0  0  0  0
  3  1  1  0  0  0  0
  4  6  1  0  0  0  0
  5  7  3  0  0  0  0
  6 17  1  0  0  0  0
  7 20  1  0  0  0  0
  8  4  1  0  0  0  0
  9  4  1  0  0  0  0
 10  1  2  0  0  0  0
 11  2  1  0  0  0  0
 12  2  1  0  0  0  0
 13  3  1  0  0  0  0
 14 23  1  0  0  0  0
 15 11  1  0  0  0  0
 16 12  1  0  0  0  0
 17 15  1  0  0  0  0
 18  9  1  0  0  0  0
 19  9  2  0  0  0  0
 20 22  2  0  0  0  0
 21 18  2  0  0  0  0
 22 19  1  0  0  0  0
 23  8  2  0  0  0  0
 24  8  1  0  0  0  0
 25 29  1  0  0  0  0
 26 13  1  0  0  0  0
 27 13  1  0  0  0  0
 28 13  1  0  0  0  0
 29 24  2  0  0  0  0
 16 17  1  0  0  0  0
 21 20  1  0  0  0  0
 25 14  2  0  0  0  0
M  END
> <Molecule Name>
DNDI1467769

> <CDD Number>
CDD-1535668

> <IC50_uM>
0.585 (n=1)

$$$$

SketchEl molfile

 30 33  0  0  0  0  0  0  0  0999 V2000
    7.1462   -8.7215    0.0000 C   0  0  0  0  0  0  0  0  0  0  0  0
   10.7053   -5.8251    0.0000 C   0  0  0  0  0  0  0  0  0  0  0  0
    9.9926   -6.2377    0.0000 N   0  0  0  0  0  0  0  0  0  0  0  0
    7.8589   -8.3048    0.0000 C   0  0  0  0  0  0  0  0  0  0  0  0
    6.4294   -8.3089    0.0000 C   0  0  0  0  0  0  0  0  0  0  0  0
    7.8547   -7.4796    0.0000 N   0  0  0  0  0  0  0  0  0  0  0  0
    7.1462   -9.5508    0.0000 C   0  0  0  0  0  0  0  0  0  0  0  0
    5.7168   -8.7215    0.0000 C   0  0  0  0  0  0  0  0  0  0  0  0
    8.5757   -8.7132    0.0000 C   0  0  0  0  0  0  0  0  0  0  0  0
    9.2758   -5.8293    0.0000 C   0  0  0  0  0  0  0  0  0  0  0  0
    9.9884   -7.0670    0.0000 C   0  0  0  0  0  0  0  0  0  0  0  0
   10.7053   -5.0000    0.0000 O   0  0  0  0  0  0  0  0  0  0  0  0
   11.4221   -6.2377    0.0000 C   0  0  0  0  0  0  0  0  0  0  0  0
    9.2883   -9.9467    0.0000 N   0  0  0  0  0  0  0  0  0  0  0  0
    9.2800   -7.4754    0.0000 C   0  0  0  0  0  0  0  0  0  0  0  0
    8.5590   -6.2419    0.0000 C   0  0  0  0  0  0  0  0  0  0  0  0
    8.5673   -7.0628    0.0000 C   0  0  0  0  0  0  0  0  0  0  0  0
    5.7168   -9.5508    0.0000 C   0  0  0  0  0  0  0  0  0  0  0  0
    6.4253   -7.4838    0.0000 F   0  0  0  0  0  0  0  0  0  0  0  0
    6.4294   -9.9634    0.0000 C   0  0  0  0  0  0  0  0  0  0  0  0
    5.0000   -9.9634    0.0000 Cl  0  0  0  0  0  0  0  0  0  0  0  0
    8.5757   -9.5383    0.0000 C   0  0  0  0  0  0  0  0  0  0  0  0
    9.2800   -8.2964    0.0000 C   0  0  0  0  0  0  0  0  0  0  0  0
   10.0051   -9.5300    0.0000 C   0  0  0  0  0  0  0  0  0  0  0  0
   11.4179   -7.0628    0.0000 C   0  0  0  0  0  0  0  0  0  0  0  0
   12.1305   -5.8251    0.0000 C   0  0  0  0  0  0  0  0  0  0  0  0
    9.9968   -8.7007    0.0000 C   0  0  0  0  0  0  0  0  0  0  0  0
   12.8432   -6.2335    0.0000 C   0  0  0  0  0  0  0  0  0  0  0  0
   12.1305   -7.4754    0.0000 C   0  0  0  0  0  0  0  0  0  0  0  0
   12.8473   -7.0628    0.0000 C   0  0  0  0  0  0  0  0  0  0  0  0
  2  3  1  0  0  0  0
  3 10  1  0  0  0  0
  4  1  1  0  0  0  0
  5  1  2  0  0  0  0
  6  4  1  0  0  0  0
  7  1  1  0  0  0  0
  8  5  1  0  0  0  0
  9  4  1  0  0  0  0
 10 16  1  0  0  0  0
 11 15  1  0  0  0  0
 12  2  2  0  0  0  0
 13  2  1  0  0  0  0
 14 22  1  0  0  0  0
 15 17  1  0  0  0  0
 16 17  1  0  0  0  0
 17  6  1  0  0  0  0
 18  8  2  0  0  0  0
 19  5  1  0  0  0  0
 20  7  2  0  0  0  0
 21 18  1  0  0  0  0
 22  9  2  0  0  0  0
 23  9  1  0  0  0  0
 24 27  1  0  0  0  0
 25 13  2  0  0  0  0
 26 13  1  0  0  0  0
 27 23  2  0  0  0  0
 28 26  2  0  0  0  0
 29 25  1  0  0  0  0
 30 28  1  0  0  0  0
 20 18  1  0  0  0  0
  3 11  1  0  0  0  0
 24 14  2  0  0  0  0
 30 29  2  0  0  0  0
M  END
> <Molecule Name>
DNDI1467770

> <CDD Number>
CDD-1535669

> <IC50_uM>
0.058 (n=1)

$$$$

SketchEl molfile

 35 38  0  0  0  0  0  0  0  0999 V2000
    6.4359   -9.9576    0.0000 C   0  0  0  0  0  0  0  0  0  0  0  0
    6.4348  -10.7849    0.0000 C   0  0  0  0  0  0  0  0  0  0  0  0
    7.1496  -11.1978    0.0000 C   0  0  0  0  0  0  0  0  0  0  0  0
    7.8660  -10.7845    0.0000 C   0  0  0  0  0  0  0  0  0  0  0  0
    7.8632   -9.9539    0.0000 C   0  0  0  0  0  0  0  0  0  0  0  0
    7.1478   -9.5449    0.0000 C   0  0  0  0  0  0  0  0  0  0  0  0
    8.5761   -9.5388    0.0000 C   0  0  0  0  0  0  0  0  0  0  0  0
    9.2920   -9.9485    0.0000 C   0  0  0  0  0  0  0  0  0  0  0  0
    8.5730   -8.7138    0.0000 N   0  0  0  0  0  0  0  0  0  0  0  0
    9.2909   -8.3008    0.0000 C   0  0  0  0  0  0  0  0  0  0  0  0
    9.2898   -7.4794    0.0000 C   0  0  0  0  0  0  0  0  0  0  0  0
    8.5757   -7.0659    0.0000 C   0  0  0  0  0  0  0  0  0  0  0  0
    7.8610   -7.4797    0.0000 C   0  0  0  0  0  0  0  0  0  0  0  0
    7.8604   -8.3074    0.0000 C   0  0  0  0  0  0  0  0  0  0  0  0
    9.2918  -10.7712    0.0000 C   0  0  0  0  0  0  0  0  0  0  0  0
   10.0069  -11.1809    0.0000 N   0  0  0  0  0  0  0  0  0  0  0  0
   10.7208  -10.7657    0.0000 C   0  0  0  0  0  0  0  0  0  0  0  0
   10.7151   -9.9364    0.0000 C   0  0  0  0  0  0  0  0  0  0  0  0
    9.9993   -9.5305    0.0000 C   0  0  0  0  0  0  0  0  0  0  0  0
    8.5757   -6.2409    0.0000 N   0  0  0  0  0  0  0  0  0  0  0  0
    9.2901   -5.8284    0.0000 C   0  0  0  0  0  0  0  0  0  0  0  0
   10.0046   -6.2409    0.0000 C   0  0  0  0  0  0  0  0  0  0  0  0
    9.2901   -5.0034    0.0000 O   0  0  0  0  0  0  0  0  0  0  0  0
   10.0011   -7.0630    0.0000 C   0  0  0  0  0  0  0  0  0  0  0  0
   10.7148   -7.4754    0.0000 C   0  0  0  0  0  0  0  0  0  0  0  0
   11.4302   -7.0629    0.0000 C   0  0  0  0  0  0  0  0  0  0  0  0
   11.4276   -6.2337    0.0000 C   0  0  0  0  0  0  0  0  0  0  0  0
   10.7134   -5.8250    0.0000 C   0  0  0  0  0  0  0  0  0  0  0  0
    5.7201  -11.1969    0.0000 C   0  0  0  0  0  0  0  0  0  0  0  0
    5.0000  -11.6034    0.0000 N   0  0  0  0  0  0  0  0  0  0  0  0
   12.1451   -7.4744    0.0000 F   0  0  0  0  0  0  0  0  0  0  0  0
   10.7089   -5.0000    0.0000 C   0  0  0  0  0  0  0  0  0  0  0  0
   11.4211   -4.5836    0.0000 F   0  0  0  0  0  0  0  0  0  0  0  0
    9.9922   -4.5914    0.0000 F   0  0  0  0  0  0  0  0  0  0  0  0
   11.5069   -5.2092    0.0000 F   0  0  0  0  0  0  0  0  0  0  0  0
 28 32  1  0  0  0  0
 32 33  1  0  0  0  0
 32 34  1  0  0  0  0
 32 35  1  0  0  0  0
 16 17  2  0  0  0  0
 17 18  1  0  0  0  0
  7  9  1  0  0  0  0
 18 19  2  0  0  0  0
 19  8  1  0  0  0  0
  9 10  1  0  0  0  0
 12 20  1  0  0  0  0
  4  5  1  0  0  0  0
 20 21  1  0  0  0  0
  2  3  1  0  0  0  0
 21 22  1  0  0  0  0
  5  6  2  0  0  0  0
 21 23  2  0  0  0  0
  6  1  1  0  0  0  0
 22 24  2  0  0  0  0
  1  2  2  0  0  0  0
 24 25  1  0  0  0  0
  9 14  1  0  0  0  0
 25 26  2  0  0  0  0
 10 11  1  0  0  0  0
 26 27  1  0  0  0  0
 11 12  1  0  0  0  0
 27 28  2  0  0  0  0
 28 22  1  0  0  0  0
 12 13  1  0  0  0  0
  2 29  1  0  0  0  0
 13 14  1  0  0  0  0
 29 30  3  0  0  0  0
  5  7  1  0  0  0  0
 26 31  1  0  0  0  0
  8 15  2  0  0  0  0
  3  4  2  0  0  0  0
 15 16  1  0  0  0  0
  7  8  1  0  0  0  0
M  END
> <Molecule Name>
DNDI1467771

> <CDD Number>
CDD-1535670

> <IC50_uM>
0.00687 (n=1)

$$$$

SketchEl molfile

 32 35  0  0  0  0  0  0  0  0999 V2000
    9.2874   -6.2374    0.0000 C   0  0  0  0  0  0  0  0  0  0  0  0
    8.5708   -5.8250    0.0000 C   0  0  0  0  0  0  0  0  0  0  0  0
    7.1458   -9.9541    0.0000 C   0  0  0  0  0  0  0  0  0  0  0  0
    7.8583   -9.5374    0.0000 C   0  0  0  0  0  0  0  0  0  0  0  0
    7.8541   -8.7124    0.0000 N   0  0  0  0  0  0  0  0  0  0  0  0
    9.9958   -5.8250    0.0000 C   0  0  0  0  0  0  0  0  0  0  0  0
    6.4291   -9.5416    0.0000 C   0  0  0  0  0  0  0  0  0  0  0  0
    7.8583   -6.2374    0.0000 N   0  0  0  0  0  0  0  0  0  0  0  0
    8.5749   -9.9457    0.0000 C   0  0  0  0  0  0  0  0  0  0  0  0
    7.1458  -10.7832    0.0000 C   0  0  0  0  0  0  0  0  0  0  0  0
    5.7167   -9.9541    0.0000 C   0  0  0  0  0  0  0  0  0  0  0  0
    8.5708   -5.0000    0.0000 O   0  0  0  0  0  0  0  0  0  0  0  0
    7.1416   -8.3041    0.0000 C   0  0  0  0  0  0  0  0  0  0  0  0
    8.5708   -8.2999    0.0000 C   0  0  0  0  0  0  0  0  0  0  0  0
   10.7082   -6.2333    0.0000 C   0  0  0  0  0  0  0  0  0  0  0  0
    9.2874  -11.1790    0.0000 N   0  0  0  0  0  0  0  0  0  0  0  0
    9.9958   -9.9332    0.0000 N   0  0  0  0  0  0  0  0  0  0  0  0
   10.0041  -10.7624    0.0000 C   0  0  0  0  0  0  0  0  0  0  0  0
    7.8583   -7.0624    0.0000 C   0  0  0  0  0  0  0  0  0  0  0  0
    8.5708   -7.4791    0.0000 C   0  0  0  0  0  0  0  0  0  0  0  0
    7.1416   -7.4791    0.0000 C   0  0  0  0  0  0  0  0  0  0  0  0
    5.7167  -10.7832    0.0000 C   0  0  0  0  0  0  0  0  0  0  0  0
    9.9916   -5.0000    0.0000 F   0  0  0  0  0  0  0  0  0  0  0  0
    6.4250   -8.7166    0.0000 F   0  0  0  0  0  0  0  0  0  0  0  0
    6.4291  -11.1957    0.0000 C   0  0  0  0  0  0  0  0  0  0  0  0
    9.2833   -7.0624    0.0000 C   0  0  0  0  0  0  0  0  0  0  0  0
    9.2791   -9.5291    0.0000 C   0  0  0  0  0  0  0  0  0  0  0  0
    8.5749  -10.7707    0.0000 C   0  0  0  0  0  0  0  0  0  0  0  0
   11.4207   -5.8166    0.0000 F   0  0  0  0  0  0  0  0  0  0  0  0
    5.0000  -11.1957    0.0000 Cl  0  0  0  0  0  0  0  0  0  0  0  0
    9.9958   -7.4749    0.0000 C   0  0  0  0  0  0  0  0  0  0  0  0
   10.7124   -7.0624    0.0000 C   0  0  0  0  0  0  0  0  0  0  0  0
  2  1  1  0  0  0  0
  3  4  1  0  0  0  0
  4  5  1  0  0  0  0
  5 13  1  0  0  0  0
  6  1  1  0  0  0  0
  7  3  2  0  0  0  0
  8  2  1  0  0  0  0
  9  4  1  0  0  0  0
 10  3  1  0  0  0  0
 11  7  1  0  0  0  0
 12  2  2  0  0  0  0
 13 21  1  0  0  0  0
 14 20  1  0  0  0  0
 15  6  2  0  0  0  0
 16 28  1  0  0  0  0
 17 27  2  0  0  0  0
 18 16  2  0  0  0  0
 19  8  1  0  0  0  0
 20 19  1  0  0  0  0
 21 19  1  0  0  0  0
 22 11  2  0  0  0  0
 23  6  1  0  0  0  0
 24  7  1  0  0  0  0
 25 10  2  0  0  0  0
 26  1  2  0  0  0  0
 27  9  1  0  0  0  0
 28  9  2  0  0  0  0
 29 15  1  0  0  0  0
 30 22  1  0  0  0  0
 31 26  1  0  0  0  0
 32 15  1  0  0  0  0
 32 31  2  0  0  0  0
 14  5  1  0  0  0  0
 25 22  1  0  0  0  0
 17 18  1  0  0  0  0
M  END
> <Molecule Name>
DNDI1467772

> <CDD Number>
CDD-1535671

> <IC50_uM>
0.0295 (n=1)

$$$$

SketchEl molfile

 32 35  0  0  0  0  0  0  0  0999 V2000
    9.2880   -6.2376    0.0000 C   0  0  0  0  0  0  0  0  0  0  0  0
    8.5713   -5.8251    0.0000 C   0  0  0  0  0  0  0  0  0  0  0  0
    7.1461   -9.9548    0.0000 C   0  0  0  0  0  0  0  0  0  0  0  0
    7.8587   -9.5381    0.0000 C   0  0  0  0  0  0  0  0  0  0  0  0
    7.8545   -8.7129    0.0000 N   0  0  0  0  0  0  0  0  0  0  0  0
    9.9965   -5.8251    0.0000 C   0  0  0  0  0  0  0  0  0  0  0  0
    6.4293   -9.5422    0.0000 C   0  0  0  0  0  0  0  0  0  0  0  0
    7.8587   -6.2376    0.0000 N   0  0  0  0  0  0  0  0  0  0  0  0
    8.5755   -9.9464    0.0000 C   0  0  0  0  0  0  0  0  0  0  0  0
    9.2839   -7.0627    0.0000 C   0  0  0  0  0  0  0  0  0  0  0  0
    7.1461  -10.7840    0.0000 C   0  0  0  0  0  0  0  0  0  0  0  0
   10.7091   -6.2335    0.0000 C   0  0  0  0  0  0  0  0  0  0  0  0
    5.7168   -9.9589    0.0000 C   0  0  0  0  0  0  0  0  0  0  0  0
    8.5713   -5.0000    0.0000 O   0  0  0  0  0  0  0  0  0  0  0  0
    7.1419   -8.3046    0.0000 C   0  0  0  0  0  0  0  0  0  0  0  0
    8.5713   -8.3004    0.0000 C   0  0  0  0  0  0  0  0  0  0  0  0
    9.9965   -9.9339    0.0000 N   0  0  0  0  0  0  0  0  0  0  0  0
    9.2880  -11.1799    0.0000 N   0  0  0  0  0  0  0  0  0  0  0  0
   10.0048  -10.7632    0.0000 C   0  0  0  0  0  0  0  0  0  0  0  0
    7.8587   -7.0627    0.0000 C   0  0  0  0  0  0  0  0  0  0  0  0
    7.1419   -7.4795    0.0000 C   0  0  0  0  0  0  0  0  0  0  0  0
    8.5713   -7.4795    0.0000 C   0  0  0  0  0  0  0  0  0  0  0  0
    5.7168  -10.7840    0.0000 C   0  0  0  0  0  0  0  0  0  0  0  0
   10.7132   -7.0627    0.0000 C   0  0  0  0  0  0  0  0  0  0  0  0
    9.9923   -5.0000    0.0000 F   0  0  0  0  0  0  0  0  0  0  0  0
    6.4252   -8.7171    0.0000 F   0  0  0  0  0  0  0  0  0  0  0  0
    9.9965   -7.4753    0.0000 C   0  0  0  0  0  0  0  0  0  0  0  0
    6.4293  -11.1966    0.0000 C   0  0  0  0  0  0  0  0  0  0  0  0
    9.2797   -9.5297    0.0000 C   0  0  0  0  0  0  0  0  0  0  0  0
    8.5755  -10.7715    0.0000 C   0  0  0  0  0  0  0  0  0  0  0  0
    5.0000  -11.1966    0.0000 Cl  0  0  0  0  0  0  0  0  0  0  0  0
   11.4258   -7.4753    0.0000 F   0  0  0  0  0  0  0  0  0  0  0  0
  2  1  1  0  0  0  0
  3  4  1  0  0  0  0
  4  5  1  0  0  0  0
  5 15  1  0  0  0  0
  6  1  1  0  0  0  0
  7  3  2  0  0  0  0
  8  2  1  0  0  0  0
  9  4  1  0  0  0  0
 10  1  2  0  0  0  0
 11  3  1  0  0  0  0
 12  6  2  0  0  0  0
 13  7  1  0  0  0  0
 14  2  2  0  0  0  0
 15 21  1  0  0  0  0
 16 22  1  0  0  0  0
 17 29  2  0  0  0  0
 18 30  1  0  0  0  0
 19 18  2  0  0  0  0
 20  8  1  0  0  0  0
 21 20  1  0  0  0  0
 22 20  1  0  0  0  0
 23 13  2  0  0  0  0
 24 12  1  0  0  0  0
 25  6  1  0  0  0  0
 26  7  1  0  0  0  0
 27 10  1  0  0  0  0
 28 11  2  0  0  0  0
 29  9  1  0  0  0  0
 30  9  2  0  0  0  0
 31 23  1  0  0  0  0
 32 24  1  0  0  0  0
 24 27  2  0  0  0  0
 16  5  1  0  0  0  0
 28 23  1  0  0  0  0
 17 19  1  0  0  0  0
M  END
> <Molecule Name>
DNDI1467773

> <CDD Number>
CDD-1535672

> <IC50_uM>
0.015 (n=1)

$$$$

SketchEl molfile

 32 35  0  0  0  0  0  0  0  0999 V2000
    9.2878   -6.2376    0.0000 C   0  0  0  0  0  0  0  0  0  0  0  0
    8.5711   -5.8251    0.0000 C   0  0  0  0  0  0  0  0  0  0  0  0
    7.1460   -9.9545    0.0000 C   0  0  0  0  0  0  0  0  0  0  0  0
    7.8585   -9.5379    0.0000 C   0  0  0  0  0  0  0  0  0  0  0  0
    7.8544   -8.7128    0.0000 N   0  0  0  0  0  0  0  0  0  0  0  0
    6.4293   -9.5420    0.0000 C   0  0  0  0  0  0  0  0  0  0  0  0
    7.8585   -6.2376    0.0000 N   0  0  0  0  0  0  0  0  0  0  0  0
    8.5752   -9.9462    0.0000 C   0  0  0  0  0  0  0  0  0  0  0  0
    7.1460  -10.7838    0.0000 C   0  0  0  0  0  0  0  0  0  0  0  0
    5.7167   -9.9587    0.0000 C   0  0  0  0  0  0  0  0  0  0  0  0
    9.9962   -5.8251    0.0000 C   0  0  0  0  0  0  0  0  0  0  0  0
    9.2836   -7.0627    0.0000 C   0  0  0  0  0  0  0  0  0  0  0  0
    8.5711   -5.0000    0.0000 O   0  0  0  0  0  0  0  0  0  0  0  0
    8.5711   -8.3003    0.0000 C   0  0  0  0  0  0  0  0  0  0  0  0
    7.1418   -8.3044    0.0000 C   0  0  0  0  0  0  0  0  0  0  0  0
    9.2878  -11.1796    0.0000 N   0  0  0  0  0  0  0  0  0  0  0  0
    9.9962   -9.9337    0.0000 N   0  0  0  0  0  0  0  0  0  0  0  0
   10.0045  -10.7629    0.0000 C   0  0  0  0  0  0  0  0  0  0  0  0
    7.8585   -7.0627    0.0000 C   0  0  0  0  0  0  0  0  0  0  0  0
    8.5711   -7.4794    0.0000 C   0  0  0  0  0  0  0  0  0  0  0  0
    7.1418   -7.4794    0.0000 C   0  0  0  0  0  0  0  0  0  0  0  0
   10.7087   -6.2335    0.0000 C   0  0  0  0  0  0  0  0  0  0  0  0
    5.7167  -10.7838    0.0000 C   0  0  0  0  0  0  0  0  0  0  0  0
    6.4251   -8.7170    0.0000 F   0  0  0  0  0  0  0  0  0  0  0  0
    9.9962   -7.4752    0.0000 C   0  0  0  0  0  0  0  0  0  0  0  0
    6.4293  -11.1963    0.0000 C   0  0  0  0  0  0  0  0  0  0  0  0
    9.9920   -5.0000    0.0000 F   0  0  0  0  0  0  0  0  0  0  0  0
    8.5752  -10.7713    0.0000 C   0  0  0  0  0  0  0  0  0  0  0  0
    9.2795   -9.5295    0.0000 C   0  0  0  0  0  0  0  0  0  0  0  0
   10.7129   -7.0627    0.0000 C   0  0  0  0  0  0  0  0  0  0  0  0
    5.0000  -11.1963    0.0000 Cl  0  0  0  0  0  0  0  0  0  0  0  0
    9.9962   -8.3003    0.0000 F   0  0  0  0  0  0  0  0  0  0  0  0
  2  1  1  0  0  0  0
  3  4  1  0  0  0  0
  4  5  1  0  0  0  0
  5 15  1  0  0  0  0
  6  3  2  0  0  0  0
  7  2  1  0  0  0  0
  8  4  1  0  0  0  0
  9  3  1  0  0  0  0
 10  6  1  0  0  0  0
 11  1  1  0  0  0  0
 12  1  2  0  0  0  0
 13  2  2  0  0  0  0
 14 20  1  0  0  0  0
 15 21  1  0  0  0  0
 16 28  1  0  0  0  0
 17 29  2  0  0  0  0
 18 16  2  0  0  0  0
 19  7  1  0  0  0  0
 20 19  1  0  0  0  0
 21 19  1  0  0  0  0
 22 11  2  0  0  0  0
 23 10  2  0  0  0  0
 24  6  1  0  0  0  0
 25 12  1  0  0  0  0
 26  9  2  0  0  0  0
 27 11  1  0  0  0  0
 28  8  2  0  0  0  0
 29  8  1  0  0  0  0
 30 22  1  0  0  0  0
 31 23  1  0  0  0  0
 32 25  1  0  0  0  0
 30 25  2  0  0  0  0
 14  5  1  0  0  0  0
 26 23  1  0  0  0  0
 17 18  1  0  0  0  0
M  END
> <Molecule Name>
DNDI1467774

> <CDD Number>
CDD-1535673

> <IC50_uM>
0.0225 (n=1)

$$$$

SketchEl molfile

 32 35  0  0  0  0  0  0  0  0999 V2000
    8.5709   -7.4708    0.0000 C   0  0  0  0  0  0  0  0  0  0  0  0
    8.5709   -6.6458    0.0000 C   0  0  0  0  0  0  0  0  0  0  0  0
    7.1459  -11.6000    0.0000 C   0  0  0  0  0  0  0  0  0  0  0  0
    7.8584  -11.1834    0.0000 C   0  0  0  0  0  0  0  0  0  0  0  0
    7.8542  -10.3583    0.0000 N   0  0  0  0  0  0  0  0  0  0  0  0
    6.4292  -11.1875    0.0000 C   0  0  0  0  0  0  0  0  0  0  0  0
    7.8584   -7.8833    0.0000 N   0  0  0  0  0  0  0  0  0  0  0  0
    8.5750  -11.5917    0.0000 C   0  0  0  0  0  0  0  0  0  0  0  0
    7.1459  -12.4292    0.0000 C   0  0  0  0  0  0  0  0  0  0  0  0
    5.7167  -11.6042    0.0000 C   0  0  0  0  0  0  0  0  0  0  0  0
    9.2875   -7.8833    0.0000 O   0  0  0  0  0  0  0  0  0  0  0  0
    9.2834   -6.2375    0.0000 C   0  0  0  0  0  0  0  0  0  0  0  0
    7.8542   -6.2416    0.0000 C   0  0  0  0  0  0  0  0  0  0  0  0
    8.5709   -9.9458    0.0000 C   0  0  0  0  0  0  0  0  0  0  0  0
    7.1417   -9.9500    0.0000 C   0  0  0  0  0  0  0  0  0  0  0  0
    9.2875  -12.8250    0.0000 N   0  0  0  0  0  0  0  0  0  0  0  0
    9.9959  -11.5792    0.0000 N   0  0  0  0  0  0  0  0  0  0  0  0
   10.0042  -12.4084    0.0000 C   0  0  0  0  0  0  0  0  0  0  0  0
    7.8584   -8.7083    0.0000 C   0  0  0  0  0  0  0  0  0  0  0  0
    8.5667   -9.1167    0.0000 C   0  0  0  0  0  0  0  0  0  0  0  0
    7.1417   -9.1250    0.0000 C   0  0  0  0  0  0  0  0  0  0  0  0
    5.7167  -12.4292    0.0000 C   0  0  0  0  0  0  0  0  0  0  0  0
    6.4250  -10.3625    0.0000 F   0  0  0  0  0  0  0  0  0  0  0  0
    6.4292  -12.8417    0.0000 C   0  0  0  0  0  0  0  0  0  0  0  0
    8.5750  -12.4167    0.0000 C   0  0  0  0  0  0  0  0  0  0  0  0
    9.2792  -11.1750    0.0000 C   0  0  0  0  0  0  0  0  0  0  0  0
    7.1417   -6.6541    0.0000 F   0  0  0  0  0  0  0  0  0  0  0  0
   10.0000   -6.6500    0.0000 F   0  0  0  0  0  0  0  0  0  0  0  0
    5.0000  -12.8417    0.0000 Cl  0  0  0  0  0  0  0  0  0  0  0  0
    8.5709   -5.0000    0.0000 C   0  0  0  0  0  0  0  0  0  0  0  0
    7.8542   -5.4166    0.0000 C   0  0  0  0  0  0  0  0  0  0  0  0
    9.2834   -5.4125    0.0000 C   0  0  0  0  0  0  0  0  0  0  0  0
  2  1  1  0  0  0  0
  3  4  1  0  0  0  0
  4  5  1  0  0  0  0
  5 15  1  0  0  0  0
  6  3  2  0  0  0  0
  7  1  1  0  0  0  0
  8  4  1  0  0  0  0
  9  3  1  0  0  0  0
 10  6  1  0  0  0  0
 11  1  2  0  0  0  0
 12  2  2  0  0  0  0
 13  2  1  0  0  0  0
 14 20  1  0  0  0  0
 15 21  1  0  0  0  0
 16 25  1  0  0  0  0
 17 26  2  0  0  0  0
 18 16  2  0  0  0  0
 19  7  1  0  0  0  0
 20 19  1  0  0  0  0
 21 19  1  0  0  0  0
 22 10  2  0  0  0  0
 23  6  1  0  0  0  0
 24  9  2  0  0  0  0
 25  8  2  0  0  0  0
 26  8  1  0  0  0  0
 27 13  1  0  0  0  0
 28 12  1  0  0  0  0
 29 22  1  0  0  0  0
 30 31  1  0  0  0  0
 31 13  2  0  0  0  0
 32 12  1  0  0  0  0
 30 32  2  0  0  0  0
 14  5  1  0  0  0  0
 24 22  1  0  0  0  0
 17 18  1  0  0  0  0
M  END
> <Molecule Name>
DNDI1467775

> <CDD Number>
CDD-1535674

> <IC50_uM>
0.0155 (n=1)

$$$$

SketchEl molfile

 35 38  0  0  0  0  0  0  0  0999 V2000
    5.7159   -9.9579    0.0000 C   0  0  0  0  0  0  0  0  0  0  0  0
    5.7148  -10.7852    0.0000 C   0  0  0  0  0  0  0  0  0  0  0  0
    6.4296  -11.1981    0.0000 C   0  0  0  0  0  0  0  0  0  0  0  0
    7.1460  -10.7848    0.0000 C   0  0  0  0  0  0  0  0  0  0  0  0
    7.1432   -9.9542    0.0000 C   0  0  0  0  0  0  0  0  0  0  0  0
    6.4278   -9.5451    0.0000 C   0  0  0  0  0  0  0  0  0  0  0  0
    7.8562   -9.5390    0.0000 C   0  0  0  0  0  0  0  0  0  0  0  0
    8.5722   -9.9488    0.0000 C   0  0  0  0  0  0  0  0  0  0  0  0
    7.8531   -8.7140    0.0000 N   0  0  0  0  0  0  0  0  0  0  0  0
    8.5711   -8.3009    0.0000 C   0  0  0  0  0  0  0  0  0  0  0  0
    8.5700   -7.4795    0.0000 C   0  0  0  0  0  0  0  0  0  0  0  0
    7.8558   -7.0659    0.0000 C   0  0  0  0  0  0  0  0  0  0  0  0
    7.1410   -7.4798    0.0000 C   0  0  0  0  0  0  0  0  0  0  0  0
    7.1404   -8.3075    0.0000 C   0  0  0  0  0  0  0  0  0  0  0  0
    8.5720  -10.7715    0.0000 C   0  0  0  0  0  0  0  0  0  0  0  0
    9.2871  -11.1812    0.0000 N   0  0  0  0  0  0  0  0  0  0  0  0
   10.0010  -10.7660    0.0000 C   0  0  0  0  0  0  0  0  0  0  0  0
    9.9953   -9.9367    0.0000 N   0  0  0  0  0  0  0  0  0  0  0  0
    9.2795   -9.5307    0.0000 C   0  0  0  0  0  0  0  0  0  0  0  0
    7.8558   -6.2409    0.0000 N   0  0  0  0  0  0  0  0  0  0  0  0
    8.5703   -5.8284    0.0000 C   0  0  0  0  0  0  0  0  0  0  0  0
    9.2848   -6.2409    0.0000 C   0  0  0  0  0  0  0  0  0  0  0  0
    8.5703   -5.0034    0.0000 O   0  0  0  0  0  0  0  0  0  0  0  0
    9.2813   -7.0630    0.0000 C   0  0  0  0  0  0  0  0  0  0  0  0
    9.9950   -7.4755    0.0000 C   0  0  0  0  0  0  0  0  0  0  0  0
   10.7104   -7.0629    0.0000 C   0  0  0  0  0  0  0  0  0  0  0  0
   10.7078   -6.2337    0.0000 C   0  0  0  0  0  0  0  0  0  0  0  0
    9.9936   -5.8250    0.0000 C   0  0  0  0  0  0  0  0  0  0  0  0
    5.0000  -11.1972    0.0000 Cl  0  0  0  0  0  0  0  0  0  0  0  0
    6.4253   -8.7201    0.0000 F   0  0  0  0  0  0  0  0  0  0  0  0
   11.4254   -7.4745    0.0000 F   0  0  0  0  0  0  0  0  0  0  0  0
    9.9891   -5.0000    0.0000 C   0  0  0  0  0  0  0  0  0  0  0  0
   10.7013   -4.5836    0.0000 F   0  0  0  0  0  0  0  0  0  0  0  0
    9.2724   -4.5914    0.0000 F   0  0  0  0  0  0  0  0  0  0  0  0
   10.7871   -5.2092    0.0000 F   0  0  0  0  0  0  0  0  0  0  0  0
 28 32  1  0  0  0  0
 32 33  1  0  0  0  0
 32 34  1  0  0  0  0
 32 35  1  0  0  0  0
 16 17  2  0  0  0  0
 17 18  1  0  0  0  0
  7  9  1  0  0  0  0
 18 19  2  0  0  0  0
 19  8  1  0  0  0  0
  9 10  1  0  0  0  0
 12 20  1  0  0  0  0
  4  5  1  0  0  0  0
 20 21  1  0  0  0  0
  2  3  1  0  0  0  0
 21 22  1  0  0  0  0
  5  6  2  0  0  0  0
 21 23  2  0  0  0  0
  6  1  1  0  0  0  0
 22 24  2  0  0  0  0
  1  2  2  0  0  0  0
 24 25  1  0  0  0  0
  9 14  1  0  0  0  0
 25 26  2  0  0  0  0
 10 11  1  0  0  0  0
 26 27  1  0  0  0  0
 11 12  1  0  0  0  0
 27 28  2  0  0  0  0
 28 22  1  0  0  0  0
 12 13  1  0  0  0  0
  2 29  1  0  0  0  0
 13 14  1  0  0  0  0
  6 30  1  0  0  0  0
  5  7  1  0  0  0  0
 26 31  1  0  0  0  0
  8 15  2  0  0  0  0
  3  4  2  0  0  0  0
 15 16  1  0  0  0  0
  7  8  1  0  0  0  0
M  END
> <Molecule Name>
DNDI1467776

> <CDD Number>
CDD-1535675

> <IC50_uM>
0.011 (n=1)

$$$$

SketchEl molfile

 32 36  0  0  0  0  0  0  0  0999 V2000
    8.5725   -7.4803    0.0000 N   0  0  0  0  0  0  0  0  0  0  0  0
    7.8555   -7.0718    0.0000 C   0  0  0  0  0  0  0  0  0  0  0  0
   11.4237   -5.8254    0.0000 C   0  0  0  0  0  0  0  0  0  0  0  0
   10.7109   -6.2381    0.0000 N   0  0  0  0  0  0  0  0  0  0  0  0
    7.8513   -6.2464    0.0000 C   0  0  0  0  0  0  0  0  0  0  0  0
   12.1407   -6.2381    0.0000 C   0  0  0  0  0  0  0  0  0  0  0  0
    8.5766   -8.3057    0.0000 C   0  0  0  0  0  0  0  0  0  0  0  0
    8.2598   -5.5336    0.0000 C   0  0  0  0  0  0  0  0  0  0  0  0
    7.4344   -5.5336    0.0000 C   0  0  0  0  0  0  0  0  0  0  0  0
   12.5534   -6.9509    0.0000 C   0  0  0  0  0  0  0  0  0  0  0  0
   12.9661   -6.2381    0.0000 C   0  0  0  0  0  0  0  0  0  0  0  0
    5.0000  -10.3691    0.0000 N   0  0  0  0  0  0  0  0  0  0  0  0
    9.2853   -7.0634    0.0000 C   0  0  0  0  0  0  0  0  0  0  0  0
    5.7170   -9.9648    0.0000 C   0  0  0  0  0  0  0  0  0  0  0  0
    9.2936   -8.7142    0.0000 C   0  0  0  0  0  0  0  0  0  0  0  0
    7.8638   -8.7225    0.0000 C   0  0  0  0  0  0  0  0  0  0  0  0
    9.9981   -7.4761    0.0000 C   0  0  0  0  0  0  0  0  0  0  0  0
    9.2769   -6.2422    0.0000 C   0  0  0  0  0  0  0  0  0  0  0  0
    9.9939   -5.8295    0.0000 C   0  0  0  0  0  0  0  0  0  0  0  0
   10.7068   -7.0676    0.0000 C   0  0  0  0  0  0  0  0  0  0  0  0
    7.1426   -7.4845    0.0000 O   0  0  0  0  0  0  0  0  0  0  0  0
   11.4237   -5.0000    0.0000 O   0  0  0  0  0  0  0  0  0  0  0  0
   10.0064   -9.9481    0.0000 N   0  0  0  0  0  0  0  0  0  0  0  0
    7.8638   -9.5521    0.0000 C   0  0  0  0  0  0  0  0  0  0  0  0
    7.1468   -8.3098    0.0000 C   0  0  0  0  0  0  0  0  0  0  0  0
    6.4340   -9.5521    0.0000 C   0  0  0  0  0  0  0  0  0  0  0  0
    7.1468   -9.9648    0.0000 C   0  0  0  0  0  0  0  0  0  0  0  0
    6.4340   -8.7267    0.0000 C   0  0  0  0  0  0  0  0  0  0  0  0
    9.2936   -9.5396    0.0000 C   0  0  0  0  0  0  0  0  0  0  0  0
    9.9981   -8.2973    0.0000 C   0  0  0  0  0  0  0  0  0  0  0  0
   10.7234   -9.5312    0.0000 C   0  0  0  0  0  0  0  0  0  0  0  0
   10.7151   -8.7017    0.0000 C   0  0  0  0  0  0  0  0  0  0  0  0
  2  1  1  0  0  0  0
  3  4  1  0  0  0  0
  4 19  1  0  0  0  0
  5  2  1  0  0  0  0
  6  3  1  0  0  0  0
  7  1  1  0  0  0  0
  8  5  1  0  0  0  0
  9  5  1  0  0  0  0
 10  6  1  0  0  0  0
 11  6  1  0  0  0  0
 12 14  3  0  0  0  0
 13  1  1  0  0  0  0
 14 26  1  0  0  0  0
 15  7  1  0  0  0  0
 16  7  1  0  0  0  0
 17 13  1  0  0  0  0
 18 13  1  0  0  0  0
 19 18  1  0  0  0  0
 20 17  1  0  0  0  0
 21  2  2  0  0  0  0
 22  3  2  0  0  0  0
 23 29  1  0  0  0  0
 24 16  1  0  0  0  0
 25 16  2  0  0  0  0
 26 28  2  0  0  0  0
 27 24  2  0  0  0  0
 28 25  1  0  0  0  0
 29 15  2  0  0  0  0
 30 15  1  0  0  0  0
 31 32  1  0  0  0  0
 32 30  2  0  0  0  0
  4 20  1  0  0  0  0
  8  9  1  0  0  0  0
 27 26  1  0  0  0  0
 31 23  2  0  0  0  0
 10 11  1  0  0  0  0
M  END
> <Molecule Name>
DNDI1467999

> <CDD Number>
CDD-1535676

> <IC50_uM>
> 10.0 (n=1)

$$$$

SketchEl molfile

 27 30  0  0  0  0  0  0  0  0999 V2000
    7.1456   -8.7205    0.0000 C   0  0  0  0  0  0  0  0  0  0  0  0
   10.7036   -5.8249    0.0000 C   0  0  0  0  0  0  0  0  0  0  0  0
    9.9912   -6.2374    0.0000 N   0  0  0  0  0  0  0  0  0  0  0  0
    7.8581   -8.3038    0.0000 C   0  0  0  0  0  0  0  0  0  0  0  0
   11.4202   -6.2374    0.0000 C   0  0  0  0  0  0  0  0  0  0  0  0
    6.4290   -8.3080    0.0000 C   0  0  0  0  0  0  0  0  0  0  0  0
   11.8368   -6.9498    0.0000 C   0  0  0  0  0  0  0  0  0  0  0  0
   12.2493   -6.2374    0.0000 C   0  0  0  0  0  0  0  0  0  0  0  0
    7.8539   -7.4789    0.0000 N   0  0  0  0  0  0  0  0  0  0  0  0
    7.1456   -9.5495    0.0000 C   0  0  0  0  0  0  0  0  0  0  0  0
    5.7166   -8.7205    0.0000 C   0  0  0  0  0  0  0  0  0  0  0  0
    8.5747   -8.7121    0.0000 C   0  0  0  0  0  0  0  0  0  0  0  0
    9.9870   -7.0664    0.0000 C   0  0  0  0  0  0  0  0  0  0  0  0
    9.2746   -5.8291    0.0000 C   0  0  0  0  0  0  0  0  0  0  0  0
   10.7036   -5.0000    0.0000 O   0  0  0  0  0  0  0  0  0  0  0  0
    9.2871   -9.9453    0.0000 N   0  0  0  0  0  0  0  0  0  0  0  0
    8.5580   -6.2415    0.0000 C   0  0  0  0  0  0  0  0  0  0  0  0
    9.2788   -7.4747    0.0000 C   0  0  0  0  0  0  0  0  0  0  0  0
    8.5663   -7.0623    0.0000 C   0  0  0  0  0  0  0  0  0  0  0  0
    5.7166   -9.5495    0.0000 C   0  0  0  0  0  0  0  0  0  0  0  0
    6.4249   -7.4831    0.0000 F   0  0  0  0  0  0  0  0  0  0  0  0
    6.4290   -9.9620    0.0000 C   0  0  0  0  0  0  0  0  0  0  0  0
    5.0000   -9.9620    0.0000 Cl  0  0  0  0  0  0  0  0  0  0  0  0
    8.5747   -9.5370    0.0000 C   0  0  0  0  0  0  0  0  0  0  0  0
    9.2788   -8.2955    0.0000 C   0  0  0  0  0  0  0  0  0  0  0  0
   10.0037   -9.5287    0.0000 C   0  0  0  0  0  0  0  0  0  0  0  0
    9.9954   -8.6996    0.0000 C   0  0  0  0  0  0  0  0  0  0  0  0
  2  3  1  0  0  0  0
  3 14  1  0  0  0  0
  4  1  1  0  0  0  0
  5  2  1  0  0  0  0
  6  1  2  0  0  0  0
  7  5  1  0  0  0  0
  8  5  1  0  0  0  0
  9  4  1  0  0  0  0
 10  1  1  0  0  0  0
 11  6  1  0  0  0  0
 12  4  1  0  0  0  0
 13 18  1  0  0  0  0
 14 17  1  0  0  0  0
 15  2  2  0  0  0  0
 16 24  1  0  0  0  0
 17 19  1  0  0  0  0
 18 19  1  0  0  0  0
 19  9  1  0  0  0  0
 20 11  2  0  0  0  0
 21  6  1  0  0  0  0
 22 10  2  0  0  0  0
 23 20  1  0  0  0  0
 24 12  2  0  0  0  0
 25 12  1  0  0  0  0
 26 16  2  0  0  0  0
 27 25  2  0  0  0  0
 22 20  1  0  0  0  0
 27 26  1  0  0  0  0
  3 13  1  0  0  0  0
  7  8  1  0  0  0  0
M  END
> <Molecule Name>
DNDI1468000

> <CDD Number>
CDD-1535677

> <IC50_uM>
0.126 (n=1)

$$$$

SketchEl molfile

 29 31  0  0  0  0  0  0  0  0999 V2000
   10.7042   -5.8292    0.0000 C   0  0  0  0  0  0  0  0  0  0  0  0
    7.1458   -8.7250    0.0000 C   0  0  0  0  0  0  0  0  0  0  0  0
    9.9917   -6.2417    0.0000 N   0  0  0  0  0  0  0  0  0  0  0  0
    7.8583   -8.3084    0.0000 C   0  0  0  0  0  0  0  0  0  0  0  0
    6.4292   -8.3125    0.0000 C   0  0  0  0  0  0  0  0  0  0  0  0
   11.4208   -6.2459    0.0000 N   0  0  0  0  0  0  0  0  0  0  0  0
    7.8542   -7.4834    0.0000 N   0  0  0  0  0  0  0  0  0  0  0  0
    7.1458   -9.5542    0.0000 C   0  0  0  0  0  0  0  0  0  0  0  0
    5.7167   -8.7250    0.0000 C   0  0  0  0  0  0  0  0  0  0  0  0
    8.5750   -8.7167    0.0000 C   0  0  0  0  0  0  0  0  0  0  0  0
   10.7042   -5.0042    0.0000 O   0  0  0  0  0  0  0  0  0  0  0  0
    9.2750   -5.8334    0.0000 C   0  0  0  0  0  0  0  0  0  0  0  0
    9.9875   -7.0709    0.0000 C   0  0  0  0  0  0  0  0  0  0  0  0
   12.1292   -5.8250    0.0000 C   0  0  0  0  0  0  0  0  0  0  0  0
    9.2875   -9.9500    0.0000 N   0  0  0  0  0  0  0  0  0  0  0  0
    9.2792   -7.4792    0.0000 C   0  0  0  0  0  0  0  0  0  0  0  0
    8.5583   -6.2459    0.0000 C   0  0  0  0  0  0  0  0  0  0  0  0
    8.5667   -7.0667    0.0000 C   0  0  0  0  0  0  0  0  0  0  0  0
    5.7167   -9.5542    0.0000 C   0  0  0  0  0  0  0  0  0  0  0  0
    6.4250   -7.4875    0.0000 F   0  0  0  0  0  0  0  0  0  0  0  0
    6.4292   -9.9667    0.0000 C   0  0  0  0  0  0  0  0  0  0  0  0
    5.0000   -9.9667    0.0000 Cl  0  0  0  0  0  0  0  0  0  0  0  0
    8.5750   -9.5417    0.0000 C   0  0  0  0  0  0  0  0  0  0  0  0
    9.2792   -8.3000    0.0000 C   0  0  0  0  0  0  0  0  0  0  0  0
   10.0042   -9.5334    0.0000 C   0  0  0  0  0  0  0  0  0  0  0  0
   12.8500   -6.2292    0.0000 C   0  0  0  0  0  0  0  0  0  0  0  0
   12.1208   -5.0000    0.0000 C   0  0  0  0  0  0  0  0  0  0  0  0
   12.3542   -6.6167    0.0000 C   0  0  0  0  0  0  0  0  0  0  0  0
    9.9958   -8.7042    0.0000 C   0  0  0  0  0  0  0  0  0  0  0  0
  2  4  1  0  0  0  0
  3  1  1  0  0  0  0
  4  7  1  0  0  0  0
  5  2  2  0  0  0  0
  6  1  1  0  0  0  0
  7 18  1  0  0  0  0
  8  2  1  0  0  0  0
  9  5  1  0  0  0  0
 10  4  1  0  0  0  0
 11  1  2  0  0  0  0
 12  3  1  0  0  0  0
 13  3  1  0  0  0  0
 14  6  1  0  0  0  0
 15 23  1  0  0  0  0
 16 13  1  0  0  0  0
 17 12  1  0  0  0  0
 18 17  1  0  0  0  0
 19  9  2  0  0  0  0
 20  5  1  0  0  0  0
 21  8  2  0  0  0  0
 22 19  1  0  0  0  0
 23 10  2  0  0  0  0
 24 10  1  0  0  0  0
 25 15  2  0  0  0  0
 26 14  1  0  0  0  0
 27 14  1  0  0  0  0
 28 14  1  0  0  0  0
 29 24  2  0  0  0  0
 16 18  1  0  0  0  0
 29 25  1  0  0  0  0
 21 19  1  0  0  0  0
M  END
> <Molecule Name>
DNDI1468001

> <CDD Number>
CDD-1535678

> <IC50_uM>
0.0795 (n=1)

$$$$

SketchEl molfile

 31 34  0  0  0  0  0  0  0  0999 V2000
    8.5265   -6.2804    0.0000 N   0  0  0  0  0  0  0  0  0  0  0  0
    9.2325   -5.8535    0.0000 C   0  0  0  0  0  0  0  0  0  0  0  0
    8.5688   -8.7528    0.0000 N   0  0  0  0  0  0  0  0  0  0  0  0
    9.9552   -6.2521    0.0000 C   0  0  0  0  0  0  0  0  0  0  0  0
    8.5430   -7.1059    0.0000 C   0  0  0  0  0  0  0  0  0  0  0  0
    7.8353   -7.5271    0.0000 C   0  0  0  0  0  0  0  0  0  0  0  0
    9.2640   -7.4988    0.0000 C   0  0  0  0  0  0  0  0  0  0  0  0
    9.2749   -8.3259    0.0000 C   0  0  0  0  0  0  0  0  0  0  0  0
    7.8466   -8.3449    0.0000 C   0  0  0  0  0  0  0  0  0  0  0  0
    9.2196   -5.0300    0.0000 O   0  0  0  0  0  0  0  0  0  0  0  0
    8.5762   -9.5770    0.0000 C   0  0  0  0  0  0  0  0  0  0  0  0
    5.0000  -11.6402    0.0000 N   0  0  0  0  0  0  0  0  0  0  0  0
    5.7169  -11.2359    0.0000 C   0  0  0  0  0  0  0  0  0  0  0  0
    9.2931   -9.9855    0.0000 C   0  0  0  0  0  0  0  0  0  0  0  0
    7.8634   -9.9938    0.0000 C   0  0  0  0  0  0  0  0  0  0  0  0
   10.0058  -11.2192    0.0000 N   0  0  0  0  0  0  0  0  0  0  0  0
    7.8634  -10.8233    0.0000 C   0  0  0  0  0  0  0  0  0  0  0  0
    7.1465   -9.5812    0.0000 C   0  0  0  0  0  0  0  0  0  0  0  0
    6.4338  -10.8233    0.0000 C   0  0  0  0  0  0  0  0  0  0  0  0
    7.1465  -11.2359    0.0000 C   0  0  0  0  0  0  0  0  0  0  0  0
    6.4338   -9.9980    0.0000 C   0  0  0  0  0  0  0  0  0  0  0  0
    9.2931  -10.8108    0.0000 C   0  0  0  0  0  0  0  0  0  0  0  0
    9.9975   -9.5687    0.0000 C   0  0  0  0  0  0  0  0  0  0  0  0
   10.7227  -10.8024    0.0000 C   0  0  0  0  0  0  0  0  0  0  0  0
   10.7144   -9.9730    0.0000 C   0  0  0  0  0  0  0  0  0  0  0  0
    9.9691   -7.0772    0.0000 C   0  0  0  0  0  0  0  0  0  0  0  0
   10.6909   -7.4757    0.0000 C   0  0  0  0  0  0  0  0  0  0  0  0
   11.3984   -7.0491    0.0000 C   0  0  0  0  0  0  0  0  0  0  0  0
   11.3795   -6.2198    0.0000 C   0  0  0  0  0  0  0  0  0  0  0  0
   10.6572   -5.8250    0.0000 C   0  0  0  0  0  0  0  0  0  0  0  0
   10.6381   -5.0000    0.0000 F   0  0  0  0  0  0  0  0  0  0  0  0
  3  9  1  0  0  0  0
  2  1  1  0  0  0  0
  3  8  1  0  0  0  0
  4  2  1  0  0  0  0
 12 13  3  0  0  0  0
 13 19  1  0  0  0  0
 14 11  1  0  0  0  0
 15 11  1  0  0  0  0
 16 22  1  0  0  0  0
 17 15  1  0  0  0  0
 18 15  2  0  0  0  0
 19 21  2  0  0  0  0
 20 17  2  0  0  0  0
 21 18  1  0  0  0  0
 22 14  2  0  0  0  0
 23 14  1  0  0  0  0
 24 25  1  0  0  0  0
 25 23  2  0  0  0  0
 20 19  1  0  0  0  0
 24 16  2  0  0  0  0
 11  3  1  0  0  0  0
  5  1  1  0  0  0  0
  4 26  2  0  0  0  0
  6  5  1  0  0  0  0
 26 27  1  0  0  0  0
  7  5  1  0  0  0  0
 27 28  2  0  0  0  0
  8  7  1  0  0  0  0
 28 29  1  0  0  0  0
  9  6  1  0  0  0  0
 29 30  2  0  0  0  0
 30  4  1  0  0  0  0
 10  2  2  0  0  0  0
 30 31  1  0  0  0  0
M  END
> <Molecule Name>
DNDI1468002

> <CDD Number>
CDD-1535679

> <IC50_uM>
0.0235 (n=1)

$$$$

SketchEl molfile

 31 34  0  0  0  0  0  0  0  0999 V2000
    8.5265   -6.2504    0.0000 N   0  0  0  0  0  0  0  0  0  0  0  0
    9.2325   -5.8235    0.0000 C   0  0  0  0  0  0  0  0  0  0  0  0
    8.5688   -8.7228    0.0000 N   0  0  0  0  0  0  0  0  0  0  0  0
    9.9552   -6.2221    0.0000 C   0  0  0  0  0  0  0  0  0  0  0  0
    8.5430   -7.0759    0.0000 C   0  0  0  0  0  0  0  0  0  0  0  0
    7.8353   -7.4971    0.0000 C   0  0  0  0  0  0  0  0  0  0  0  0
    9.2640   -7.4688    0.0000 C   0  0  0  0  0  0  0  0  0  0  0  0
    9.2749   -8.2959    0.0000 C   0  0  0  0  0  0  0  0  0  0  0  0
    7.8466   -8.3149    0.0000 C   0  0  0  0  0  0  0  0  0  0  0  0
    9.2196   -5.0000    0.0000 O   0  0  0  0  0  0  0  0  0  0  0  0
    8.5762   -9.5470    0.0000 C   0  0  0  0  0  0  0  0  0  0  0  0
    5.0000  -11.6102    0.0000 N   0  0  0  0  0  0  0  0  0  0  0  0
    5.7169  -11.2059    0.0000 C   0  0  0  0  0  0  0  0  0  0  0  0
    9.2931   -9.9555    0.0000 C   0  0  0  0  0  0  0  0  0  0  0  0
    7.8634   -9.9638    0.0000 C   0  0  0  0  0  0  0  0  0  0  0  0
   10.0058  -11.1892    0.0000 N   0  0  0  0  0  0  0  0  0  0  0  0
    7.8634  -10.7933    0.0000 C   0  0  0  0  0  0  0  0  0  0  0  0
    7.1465   -9.5512    0.0000 C   0  0  0  0  0  0  0  0  0  0  0  0
    6.4338  -10.7933    0.0000 C   0  0  0  0  0  0  0  0  0  0  0  0
    7.1465  -11.2059    0.0000 C   0  0  0  0  0  0  0  0  0  0  0  0
    6.4338   -9.9680    0.0000 C   0  0  0  0  0  0  0  0  0  0  0  0
    9.2931  -10.7808    0.0000 C   0  0  0  0  0  0  0  0  0  0  0  0
    9.9975   -9.5387    0.0000 C   0  0  0  0  0  0  0  0  0  0  0  0
   10.7227  -10.7724    0.0000 C   0  0  0  0  0  0  0  0  0  0  0  0
   10.7144   -9.9430    0.0000 C   0  0  0  0  0  0  0  0  0  0  0  0
    9.9691   -7.0472    0.0000 C   0  0  0  0  0  0  0  0  0  0  0  0
   10.6909   -7.4457    0.0000 C   0  0  0  0  0  0  0  0  0  0  0  0
   11.3984   -7.0191    0.0000 C   0  0  0  0  0  0  0  0  0  0  0  0
   11.3795   -6.1898    0.0000 C   0  0  0  0  0  0  0  0  0  0  0  0
   10.6572   -5.7950    0.0000 C   0  0  0  0  0  0  0  0  0  0  0  0
   12.0845   -5.7608    0.0000 F   0  0  0  0  0  0  0  0  0  0  0  0
  3  9  1  0  0  0  0
  2  1  1  0  0  0  0
  3  8  1  0  0  0  0
  4  2  1  0  0  0  0
 12 13  3  0  0  0  0
 13 19  1  0  0  0  0
 14 11  1  0  0  0  0
 15 11  1  0  0  0  0
 16 22  1  0  0  0  0
 17 15  1  0  0  0  0
 18 15  2  0  0  0  0
 19 21  2  0  0  0  0
 20 17  2  0  0  0  0
 21 18  1  0  0  0  0
 22 14  2  0  0  0  0
 23 14  1  0  0  0  0
 24 25  1  0  0  0  0
 25 23  2  0  0  0  0
 20 19  1  0  0  0  0
 24 16  2  0  0  0  0
 11  3  1  0  0  0  0
  5  1  1  0  0  0  0
  4 26  2  0  0  0  0
  6  5  1  0  0  0  0
 26 27  1  0  0  0  0
  7  5  1  0  0  0  0
 27 28  2  0  0  0  0
  8  7  1  0  0  0  0
 28 29  1  0  0  0  0
  9  6  1  0  0  0  0
 29 30  2  0  0  0  0
 30  4  1  0  0  0  0
 10  2  2  0  0  0  0
 29 31  1  0  0  0  0
M  END
> <Molecule Name>
DNDI1468003

> <CDD Number>
CDD-1535680

> <IC50_uM>
0.039 (n=1)

$$$$

SketchEl molfile

 30 33  0  0  0  0  0  0  0  0999 V2000
    5.7161   -9.1311    0.0000 C   0  0  0  0  0  0  0  0  0  0  0  0
    5.7150   -9.9585    0.0000 C   0  0  0  0  0  0  0  0  0  0  0  0
    6.4299  -10.3715    0.0000 C   0  0  0  0  0  0  0  0  0  0  0  0
    7.1465   -9.9581    0.0000 C   0  0  0  0  0  0  0  0  0  0  0  0
    7.1437   -9.1274    0.0000 C   0  0  0  0  0  0  0  0  0  0  0  0
    6.4281   -8.7182    0.0000 C   0  0  0  0  0  0  0  0  0  0  0  0
    7.8567   -8.7121    0.0000 C   0  0  0  0  0  0  0  0  0  0  0  0
    8.5729   -9.1220    0.0000 C   0  0  0  0  0  0  0  0  0  0  0  0
    7.8536   -7.8869    0.0000 N   0  0  0  0  0  0  0  0  0  0  0  0
    8.5667   -7.4717    0.0000 C   0  0  0  0  0  0  0  0  0  0  0  0
    8.5727   -9.9448    0.0000 C   0  0  0  0  0  0  0  0  0  0  0  0
    9.2879  -10.3546    0.0000 N   0  0  0  0  0  0  0  0  0  0  0  0
   10.0020   -9.9393    0.0000 C   0  0  0  0  0  0  0  0  0  0  0  0
    9.9963   -9.1099    0.0000 C   0  0  0  0  0  0  0  0  0  0  0  0
    9.2803   -8.7038    0.0000 C   0  0  0  0  0  0  0  0  0  0  0  0
    9.2779   -7.8844    0.0000 C   0  0  0  0  0  0  0  0  0  0  0  0
    9.9889   -7.4727    0.0000 C   0  0  0  0  0  0  0  0  0  0  0  0
    9.9900   -6.6471    0.0000 N   0  0  0  0  0  0  0  0  0  0  0  0
    9.2740   -6.2351    0.0000 C   0  0  0  0  0  0  0  0  0  0  0  0
    8.5568   -6.6484    0.0000 C   0  0  0  0  0  0  0  0  0  0  0  0
   10.7046   -6.2346    0.0000 C   0  0  0  0  0  0  0  0  0  0  0  0
   11.4138   -6.6504    0.0000 N   0  0  0  0  0  0  0  0  0  0  0  0
   12.1280   -6.2386    0.0000 C   0  0  0  0  0  0  0  0  0  0  0  0
   12.1285   -5.4125    0.0000 C   0  0  0  0  0  0  0  0  0  0  0  0
   11.4088   -5.0000    0.0000 C   0  0  0  0  0  0  0  0  0  0  0  0
   10.6976   -5.4143    0.0000 N   0  0  0  0  0  0  0  0  0  0  0  0
    5.0000  -10.3706    0.0000 C   0  0  0  0  0  0  0  0  0  0  0  0
    4.2856   -9.9574    0.0000 F   0  0  0  0  0  0  0  0  0  0  0  0
    4.9993  -11.1958    0.0000 F   0  0  0  0  0  0  0  0  0  0  0  0
    4.7871   -9.5734    0.0000 F   0  0  0  0  0  0  0  0  0  0  0  0
  2 27  1  0  0  0  0
 27 28  1  0  0  0  0
 27 29  1  0  0  0  0
 27 30  1  0  0  0  0
 14 15  2  0  0  0  0
 15  8  1  0  0  0  0
 10 16  1  0  0  0  0
  3  4  2  0  0  0  0
  7  8  1  0  0  0  0
  7  9  1  0  0  0  0
  4  5  1  0  0  0  0
 10 20  1  0  0  0  0
 16 17  1  0  0  0  0
 17 18  1  0  0  0  0
 18 19  1  0  0  0  0
 19 20  1  0  0  0  0
  9 10  1  0  0  0  0
 18 21  1  0  0  0  0
  2  3  1  0  0  0  0
 21 22  2  0  0  0  0
  8 11  2  0  0  0  0
 22 23  1  0  0  0  0
  5  6  2  0  0  0  0
 23 24  2  0  0  0  0
 11 12  1  0  0  0  0
 24 25  1  0  0  0  0
  6  1  1  0  0  0  0
 25 26  2  0  0  0  0
 26 21  1  0  0  0  0
 12 13  2  0  0  0  0
  1  2  2  0  0  0  0
 13 14  1  0  0  0  0
  5  7  1  0  0  0  0
M  END
> <Molecule Name>
DNDI1489887

> <CDD Number>
CDD-1535681

> <IC50_uM>
0.0105 (n=1)

$$$$

SketchEl molfile

 31 34  0  0  0  0  0  0  0  0999 V2000
    9.2839   -5.8251    0.0000 C   0  0  0  0  0  0  0  0  0  0  0  0
    8.5713   -8.7088    0.0000 N   0  0  0  0  0  0  0  0  0  0  0  0
    5.0000  -11.6009    0.0000 N   0  0  0  0  0  0  0  0  0  0  0  0
    8.5713   -6.2377    0.0000 N   0  0  0  0  0  0  0  0  0  0  0  0
    8.5755   -9.5339    0.0000 C   0  0  0  0  0  0  0  0  0  0  0  0
    5.7168  -11.1925    0.0000 C   0  0  0  0  0  0  0  0  0  0  0  0
   10.0007   -6.2377    0.0000 C   0  0  0  0  0  0  0  0  0  0  0  0
    9.2923   -9.9423    0.0000 C   0  0  0  0  0  0  0  0  0  0  0  0
    7.8629   -9.9507    0.0000 C   0  0  0  0  0  0  0  0  0  0  0  0
    7.8546   -8.3046    0.0000 C   0  0  0  0  0  0  0  0  0  0  0  0
    9.2839   -8.2963    0.0000 C   0  0  0  0  0  0  0  0  0  0  0  0
    9.2839   -5.0000    0.0000 O   0  0  0  0  0  0  0  0  0  0  0  0
   10.0049  -11.1758    0.0000 N   0  0  0  0  0  0  0  0  0  0  0  0
    8.5713   -7.0628    0.0000 C   0  0  0  0  0  0  0  0  0  0  0  0
    7.8546   -7.4753    0.0000 C   0  0  0  0  0  0  0  0  0  0  0  0
    9.2839   -7.4753    0.0000 C   0  0  0  0  0  0  0  0  0  0  0  0
    9.9965   -7.0628    0.0000 C   0  0  0  0  0  0  0  0  0  0  0  0
   10.7091   -5.8251    0.0000 C   0  0  0  0  0  0  0  0  0  0  0  0
    7.1461   -9.5381    0.0000 C   0  0  0  0  0  0  0  0  0  0  0  0
    7.8629  -10.7800    0.0000 C   0  0  0  0  0  0  0  0  0  0  0  0
    6.4335  -10.7800    0.0000 C   0  0  0  0  0  0  0  0  0  0  0  0
   11.4259   -7.0628    0.0000 C   0  0  0  0  0  0  0  0  0  0  0  0
    7.1461  -11.1925    0.0000 C   0  0  0  0  0  0  0  0  0  0  0  0
    6.4335   -9.9507    0.0000 C   0  0  0  0  0  0  0  0  0  0  0  0
   11.4217   -6.2335    0.0000 C   0  0  0  0  0  0  0  0  0  0  0  0
   10.7091   -7.4753    0.0000 C   0  0  0  0  0  0  0  0  0  0  0  0
   12.1385   -7.4753    0.0000 F   0  0  0  0  0  0  0  0  0  0  0  0
    9.2923  -10.7675    0.0000 C   0  0  0  0  0  0  0  0  0  0  0  0
    9.9965   -9.5256    0.0000 C   0  0  0  0  0  0  0  0  0  0  0  0
   10.7216  -10.7591    0.0000 C   0  0  0  0  0  0  0  0  0  0  0  0
   10.7133   -9.9298    0.0000 C   0  0  0  0  0  0  0  0  0  0  0  0
  2 10  1  0  0  0  0
  3  6  3  0  0  0  0
  4  1  1  0  0  0  0
  5  2  1  0  0  0  0
  6 21  1  0  0  0  0
  7  1  1  0  0  0  0
  8  5  1  0  0  0  0
  9  5  1  0  0  0  0
 10 15  1  0  0  0  0
 11 16  1  0  0  0  0
 12  1  2  0  0  0  0
 13 28  1  0  0  0  0
 14  4  1  0  0  0  0
 15 14  1  0  0  0  0
 16 14  1  0  0  0  0
 17  7  2  0  0  0  0
 18  7  1  0  0  0  0
 19  9  2  0  0  0  0
 20  9  1  0  0  0  0
 21 24  2  0  0  0  0
 22 25  1  0  0  0  0
 23 20  2  0  0  0  0
 24 19  1  0  0  0  0
 25 18  2  0  0  0  0
 26 17  1  0  0  0  0
 27 22  1  0  0  0  0
 28  8  2  0  0  0  0
 29  8  1  0  0  0  0
 30 31  1  0  0  0  0
 31 29  2  0  0  0  0
 22 26  2  0  0  0  0
 11  2  1  0  0  0  0
 23 21  1  0  0  0  0
 30 13  2  0  0  0  0
M  END
> <Molecule Name>
DNDI1489888

> <CDD Number>
CDD-1535682

> <IC50_uM>
0.0185 (n=1)

$$$$

SketchEl molfile

 29 32  0  0  0  0  0  0  0  0999 V2000
   11.4257   -6.2376    0.0000 C   0  0  0  0  0  0  0  0  0  0  0  0
   10.7089   -5.8250    0.0000 C   0  0  0  0  0  0  0  0  0  0  0  0
    7.1461   -8.7170    0.0000 C   0  0  0  0  0  0  0  0  0  0  0  0
    9.9963   -6.2376    0.0000 N   0  0  0  0  0  0  0  0  0  0  0  0
    7.8586   -8.3003    0.0000 C   0  0  0  0  0  0  0  0  0  0  0  0
   12.1757   -5.9001    0.0000 N   0  0  0  0  0  0  0  0  0  0  0  0
    6.4293   -8.3045    0.0000 C   0  0  0  0  0  0  0  0  0  0  0  0
    7.8545   -7.4752    0.0000 N   0  0  0  0  0  0  0  0  0  0  0  0
    7.1461   -9.5463    0.0000 C   0  0  0  0  0  0  0  0  0  0  0  0
   12.3132   -7.2294    0.0000 S   0  0  0  0  0  0  0  0  0  0  0  0
   12.7258   -6.5168    0.0000 C   0  0  0  0  0  0  0  0  0  0  0  0
    5.7167   -8.7212    0.0000 C   0  0  0  0  0  0  0  0  0  0  0  0
   11.5090   -7.0585    0.0000 C   0  0  0  0  0  0  0  0  0  0  0  0
    8.5754   -8.7087    0.0000 C   0  0  0  0  0  0  0  0  0  0  0  0
    9.9922   -7.0627    0.0000 C   0  0  0  0  0  0  0  0  0  0  0  0
    9.2796   -5.8250    0.0000 C   0  0  0  0  0  0  0  0  0  0  0  0
   10.7089   -5.0000    0.0000 O   0  0  0  0  0  0  0  0  0  0  0  0
    9.2879   -9.9421    0.0000 N   0  0  0  0  0  0  0  0  0  0  0  0
    9.2838   -7.4752    0.0000 C   0  0  0  0  0  0  0  0  0  0  0  0
    8.5629   -6.2376    0.0000 C   0  0  0  0  0  0  0  0  0  0  0  0
    8.5670   -7.0585    0.0000 C   0  0  0  0  0  0  0  0  0  0  0  0
    5.7167   -9.5463    0.0000 C   0  0  0  0  0  0  0  0  0  0  0  0
    6.4251   -7.4794    0.0000 F   0  0  0  0  0  0  0  0  0  0  0  0
    6.4293   -9.9588    0.0000 C   0  0  0  0  0  0  0  0  0  0  0  0
    5.0000   -9.9588    0.0000 Cl  0  0  0  0  0  0  0  0  0  0  0  0
    8.5754   -9.5338    0.0000 C   0  0  0  0  0  0  0  0  0  0  0  0
    9.2796   -8.2920    0.0000 C   0  0  0  0  0  0  0  0  0  0  0  0
   10.0047   -9.5254    0.0000 C   0  0  0  0  0  0  0  0  0  0  0  0
    9.9963   -8.6962    0.0000 C   0  0  0  0  0  0  0  0  0  0  0  0
  2  1  1  0  0  0  0
  3  5  1  0  0  0  0
  4  2  1  0  0  0  0
  5  8  1  0  0  0  0
  6  1  1  0  0  0  0
  7  3  2  0  0  0  0
  8 21  1  0  0  0  0
  9  3  1  0  0  0  0
 10 13  1  0  0  0  0
 11  6  2  0  0  0  0
 12  7  1  0  0  0  0
 13  1  2  0  0  0  0
 14  5  1  0  0  0  0
 15  4  1  0  0  0  0
 16  4  1  0  0  0  0
 17  2  2  0  0  0  0
 18 26  1  0  0  0  0
 19 15  1  0  0  0  0
 20 16  1  0  0  0  0
 21 20  1  0  0  0  0
 22 12  2  0  0  0  0
 23  7  1  0  0  0  0
 24  9  2  0  0  0  0
 25 22  1  0  0  0  0
 26 14  2  0  0  0  0
 27 14  1  0  0  0  0
 28 29  1  0  0  0  0
 29 27  2  0  0  0  0
 11 10  1  0  0  0  0
 19 21  1  0  0  0  0
 24 22  1  0  0  0  0
 28 18  2  0  0  0  0
M  END
> <Molecule Name>
DNDI1489889

> <CDD Number>
CDD-1535683

> <IC50_uM>
0.241 (n=1)

$$$$

SketchEl molfile

 26 28  0  0  0  0  0  0  0  0999 V2000
   10.7088   -5.8251    0.0000 S   0  0  0  0  0  0  0  0  0  0  0  0
    9.9963   -6.2376    0.0000 N   0  0  0  0  0  0  0  0  0  0  0  0
    7.1460   -8.7170    0.0000 C   0  0  0  0  0  0  0  0  0  0  0  0
    7.8586   -8.3003    0.0000 C   0  0  0  0  0  0  0  0  0  0  0  0
    6.4293   -8.3045    0.0000 C   0  0  0  0  0  0  0  0  0  0  0  0
    7.8544   -7.4752    0.0000 N   0  0  0  0  0  0  0  0  0  0  0  0
    7.1460   -9.5463    0.0000 C   0  0  0  0  0  0  0  0  0  0  0  0
    5.7167   -8.7170    0.0000 C   0  0  0  0  0  0  0  0  0  0  0  0
   10.7088   -5.0000    0.0000 O   0  0  0  0  0  0  0  0  0  0  0  0
   10.9214   -6.6168    0.0000 O   0  0  0  0  0  0  0  0  0  0  0  0
    8.5753   -8.7087    0.0000 C   0  0  0  0  0  0  0  0  0  0  0  0
    9.2795   -5.8251    0.0000 C   0  0  0  0  0  0  0  0  0  0  0  0
    9.9921   -7.0627    0.0000 C   0  0  0  0  0  0  0  0  0  0  0  0
    9.2879   -9.9421    0.0000 N   0  0  0  0  0  0  0  0  0  0  0  0
    9.2837   -7.4752    0.0000 C   0  0  0  0  0  0  0  0  0  0  0  0
    8.5628   -6.2376    0.0000 C   0  0  0  0  0  0  0  0  0  0  0  0
    8.5670   -7.0585    0.0000 C   0  0  0  0  0  0  0  0  0  0  0  0
    5.7167   -9.5463    0.0000 C   0  0  0  0  0  0  0  0  0  0  0  0
   11.5339   -5.8251    0.0000 C   0  0  0  0  0  0  0  0  0  0  0  0
    6.4251   -7.4794    0.0000 F   0  0  0  0  0  0  0  0  0  0  0  0
    6.4293   -9.9588    0.0000 C   0  0  0  0  0  0  0  0  0  0  0  0
    5.0000   -9.9588    0.0000 Cl  0  0  0  0  0  0  0  0  0  0  0  0
    8.5753   -9.5338    0.0000 C   0  0  0  0  0  0  0  0  0  0  0  0
    9.2795   -8.2920    0.0000 C   0  0  0  0  0  0  0  0  0  0  0  0
   10.0046   -9.5254    0.0000 C   0  0  0  0  0  0  0  0  0  0  0  0
    9.9963   -8.6962    0.0000 C   0  0  0  0  0  0  0  0  0  0  0  0
  2  1  1  0  0  0  0
  3  4  1  0  0  0  0
  4  6  1  0  0  0  0
  5  3  2  0  0  0  0
  6 17  1  0  0  0  0
  7  3  1  0  0  0  0
  8  5  1  0  0  0  0
  9  1  2  0  0  0  0
 10  1  2  0  0  0  0
 11  4  1  0  0  0  0
 12  2  1  0  0  0  0
 13  2  1  0  0  0  0
 14 23  1  0  0  0  0
 15 13  1  0  0  0  0
 16 12  1  0  0  0  0
 17 16  1  0  0  0  0
 18  8  2  0  0  0  0
 19  1  1  0  0  0  0
 20  5  1  0  0  0  0
 21  7  2  0  0  0  0
 22 18  1  0  0  0  0
 23 11  2  0  0  0  0
 24 11  1  0  0  0  0
 25 26  1  0  0  0  0
 26 24  2  0  0  0  0
 15 17  1  0  0  0  0
 21 18  1  0  0  0  0
 25 14  2  0  0  0  0
M  END
> <Molecule Name>
DNDI1489890

> <CDD Number>
CDD-1535684

> <IC50_uM>
0.1345 (n=1)

$$$$

SketchEl molfile

 27 30  0  0  0  0  0  0  0  0999 V2000
   10.7117   -6.0767    0.0000 C   0  0  0  0  0  0  0  0  0  0  0  0
   10.7058   -5.2542    0.0000 N   0  0  0  0  0  0  0  0  0  0  0  0
   11.9775   -5.6652    0.0000 C   0  0  0  0  0  0  0  0  0  0  0  0
   11.4922   -5.0000    0.0000 C   0  0  0  0  0  0  0  0  0  0  0  0
   11.4964   -6.3320    0.0000 S   0  0  0  0  0  0  0  0  0  0  0  0
    7.1461   -8.9674    0.0000 C   0  0  0  0  0  0  0  0  0  0  0  0
    9.9964   -6.4879    0.0000 N   0  0  0  0  0  0  0  0  0  0  0  0
    7.8587   -8.5507    0.0000 C   0  0  0  0  0  0  0  0  0  0  0  0
    6.4293   -8.5548    0.0000 C   0  0  0  0  0  0  0  0  0  0  0  0
    7.8545   -7.7256    0.0000 N   0  0  0  0  0  0  0  0  0  0  0  0
    7.1461   -9.7967    0.0000 C   0  0  0  0  0  0  0  0  0  0  0  0
    5.7168   -8.9716    0.0000 C   0  0  0  0  0  0  0  0  0  0  0  0
    8.5754   -8.9591    0.0000 C   0  0  0  0  0  0  0  0  0  0  0  0
    9.9922   -7.3130    0.0000 C   0  0  0  0  0  0  0  0  0  0  0  0
    9.2797   -6.0754    0.0000 C   0  0  0  0  0  0  0  0  0  0  0  0
    9.2880  -10.1925    0.0000 N   0  0  0  0  0  0  0  0  0  0  0  0
    9.2838   -7.7256    0.0000 C   0  0  0  0  0  0  0  0  0  0  0  0
    8.5629   -6.4879    0.0000 C   0  0  0  0  0  0  0  0  0  0  0  0
    8.5671   -7.3089    0.0000 C   0  0  0  0  0  0  0  0  0  0  0  0
    5.7168   -9.7967    0.0000 C   0  0  0  0  0  0  0  0  0  0  0  0
    6.4252   -7.7297    0.0000 F   0  0  0  0  0  0  0  0  0  0  0  0
    6.4293  -10.2092    0.0000 C   0  0  0  0  0  0  0  0  0  0  0  0
    5.0000  -10.2092    0.0000 Cl  0  0  0  0  0  0  0  0  0  0  0  0
    8.5754   -9.7842    0.0000 C   0  0  0  0  0  0  0  0  0  0  0  0
    9.2797   -8.5423    0.0000 C   0  0  0  0  0  0  0  0  0  0  0  0
   10.0047   -9.7758    0.0000 C   0  0  0  0  0  0  0  0  0  0  0  0
    9.9964   -8.9466    0.0000 C   0  0  0  0  0  0  0  0  0  0  0  0
  5  1  1  0  0  0  0
  4  3  2  0  0  0  0
  2  1  2  0  0  0  0
  3  5  1  0  0  0  0
  4  2  1  0  0  0  0
  6  8  1  0  0  0  0
  8 10  1  0  0  0  0
  9  6  2  0  0  0  0
 10 19  1  0  0  0  0
 11  6  1  0  0  0  0
 12  9  1  0  0  0  0
 13  8  1  0  0  0  0
 14  7  1  0  0  0  0
 15  7  1  0  0  0  0
 16 24  1  0  0  0  0
 17 14  1  0  0  0  0
 18 15  1  0  0  0  0
 19 18  1  0  0  0  0
 20 12  2  0  0  0  0
 21  9  1  0  0  0  0
 22 11  2  0  0  0  0
 23 20  1  0  0  0  0
 24 13  2  0  0  0  0
 25 13  1  0  0  0  0
 26 27  1  0  0  0  0
 27 25  2  0  0  0  0
 17 19  1  0  0  0  0
 22 20  1  0  0  0  0
 26 16  2  0  0  0  0
  7  1  1  0  0  0  0
M  END
> <Molecule Name>
DNDI1489891

> <CDD Number>
CDD-1535685

> <IC50_uM>
0.009 (n=1)

$$$$

SketchEl molfile

 26 29  0  0  0  0  0  0  0  0999 V2000
    8.5750   -6.1291    0.0000 C   0  0  0  0  0  0  0  0  0  0  0  0
    8.5750   -6.9541    0.0000 N   0  0  0  0  0  0  0  0  0  0  0  0
    8.5750   -8.6000    0.0000 N   0  0  0  0  0  0  0  0  0  0  0  0
    9.2875   -5.7166    0.0000 C   0  0  0  0  0  0  0  0  0  0  0  0
   10.1083   -5.7125    0.0000 C   0  0  0  0  0  0  0  0  0  0  0  0
    9.6958   -5.0000    0.0000 C   0  0  0  0  0  0  0  0  0  0  0  0
    5.0000  -11.4916    0.0000 N   0  0  0  0  0  0  0  0  0  0  0  0
    8.5791   -9.4249    0.0000 C   0  0  0  0  0  0  0  0  0  0  0  0
    5.7208  -11.0833    0.0000 C   0  0  0  0  0  0  0  0  0  0  0  0
    9.2958   -9.8333    0.0000 C   0  0  0  0  0  0  0  0  0  0  0  0
    7.8667   -9.8416    0.0000 C   0  0  0  0  0  0  0  0  0  0  0  0
    9.2875   -7.3666    0.0000 C   0  0  0  0  0  0  0  0  0  0  0  0
    7.8583   -7.3666    0.0000 C   0  0  0  0  0  0  0  0  0  0  0  0
    9.2875   -8.1875    0.0000 C   0  0  0  0  0  0  0  0  0  0  0  0
    7.8583   -8.1958    0.0000 C   0  0  0  0  0  0  0  0  0  0  0  0
    7.8583   -5.7166    0.0000 O   0  0  0  0  0  0  0  0  0  0  0  0
   10.0083  -11.0666    0.0000 N   0  0  0  0  0  0  0  0  0  0  0  0
    7.8667  -10.6708    0.0000 C   0  0  0  0  0  0  0  0  0  0  0  0
    7.1500   -9.4291    0.0000 C   0  0  0  0  0  0  0  0  0  0  0  0
    6.4375  -10.6708    0.0000 C   0  0  0  0  0  0  0  0  0  0  0  0
    7.1500  -11.0833    0.0000 C   0  0  0  0  0  0  0  0  0  0  0  0
    6.4375   -9.8416    0.0000 C   0  0  0  0  0  0  0  0  0  0  0  0
    9.2958  -10.6583    0.0000 C   0  0  0  0  0  0  0  0  0  0  0  0
   10.0000   -9.4166    0.0000 C   0  0  0  0  0  0  0  0  0  0  0  0
   10.7250  -10.6499    0.0000 C   0  0  0  0  0  0  0  0  0  0  0  0
   10.7166   -9.8208    0.0000 C   0  0  0  0  0  0  0  0  0  0  0  0
  2  1  1  0  0  0  0
  3 15  1  0  0  0  0
  4  1  1  0  0  0  0
  5  4  1  0  0  0  0
  6  4  1  0  0  0  0
  7  9  3  0  0  0  0
  8  3  1  0  0  0  0
  9 20  1  0  0  0  0
 10  8  1  0  0  0  0
 11  8  1  0  0  0  0
 12  2  1  0  0  0  0
 13  2  1  0  0  0  0
 14 12  1  0  0  0  0
 15 13  1  0  0  0  0
 16  1  2  0  0  0  0
 17 23  1  0  0  0  0
 18 11  1  0  0  0  0
 19 11  2  0  0  0  0
 20 22  2  0  0  0  0
 21 18  2  0  0  0  0
 22 19  1  0  0  0  0
 23 10  2  0  0  0  0
 24 10  1  0  0  0  0
 25 17  2  0  0  0  0
 26 24  2  0  0  0  0
  5  6  1  0  0  0  0
 14  3  1  0  0  0  0
 26 25  1  0  0  0  0
 21 20  1  0  0  0  0
M  END
> <Molecule Name>
DNDI1489892

> <CDD Number>
CDD-1535686

> <IC50_uM>
0.281 (n=1)

$$$$

SketchEl molfile

 25 27  0  0  0  0  0  0  0  0999 V2000
    8.5735   -5.8288    0.0000 S   0  0  0  0  0  0  0  0  0  0  0  0
    8.5735   -6.6534    0.0000 N   0  0  0  0  0  0  0  0  0  0  0  0
    8.5735   -8.2986    0.0000 N   0  0  0  0  0  0  0  0  0  0  0  0
    5.0000  -11.1848    0.0000 N   0  0  0  0  0  0  0  0  0  0  0  0
    8.5776   -9.1232    0.0000 C   0  0  0  0  0  0  0  0  0  0  0  0
    9.2856   -7.0658    0.0000 C   0  0  0  0  0  0  0  0  0  0  0  0
    7.8571   -7.0658    0.0000 C   0  0  0  0  0  0  0  0  0  0  0  0
    7.7738   -5.6122    0.0000 O   0  0  0  0  0  0  0  0  0  0  0  0
    9.3689   -5.6122    0.0000 O   0  0  0  0  0  0  0  0  0  0  0  0
    5.7205  -10.7808    0.0000 C   0  0  0  0  0  0  0  0  0  0  0  0
    9.2940   -9.5313    0.0000 C   0  0  0  0  0  0  0  0  0  0  0  0
    7.8571   -7.8946    0.0000 C   0  0  0  0  0  0  0  0  0  0  0  0
    9.2856   -7.8862    0.0000 C   0  0  0  0  0  0  0  0  0  0  0  0
    7.8654   -9.5397    0.0000 C   0  0  0  0  0  0  0  0  0  0  0  0
   10.0062  -10.7641    0.0000 N   0  0  0  0  0  0  0  0  0  0  0  0
    7.8654  -10.3685    0.0000 C   0  0  0  0  0  0  0  0  0  0  0  0
    7.1491   -9.1274    0.0000 C   0  0  0  0  0  0  0  0  0  0  0  0
    6.4369  -10.3685    0.0000 C   0  0  0  0  0  0  0  0  0  0  0  0
    8.5693   -5.0000    0.0000 C   0  0  0  0  0  0  0  0  0  0  0  0
    6.4369   -9.5438    0.0000 C   0  0  0  0  0  0  0  0  0  0  0  0
    7.1491  -10.7808    0.0000 C   0  0  0  0  0  0  0  0  0  0  0  0
    9.2940  -10.3560    0.0000 C   0  0  0  0  0  0  0  0  0  0  0  0
    9.9978   -9.1149    0.0000 C   0  0  0  0  0  0  0  0  0  0  0  0
   10.7225  -10.3477    0.0000 C   0  0  0  0  0  0  0  0  0  0  0  0
   10.7142   -9.5189    0.0000 C   0  0  0  0  0  0  0  0  0  0  0  0
  2  1  1  0  0  0  0
  3 12  1  0  0  0  0
  4 10  3  0  0  0  0
  5  3  1  0  0  0  0
  6  2  1  0  0  0  0
  7  2  1  0  0  0  0
  8  1  2  0  0  0  0
  9  1  2  0  0  0  0
 10 18  1  0  0  0  0
 11  5  1  0  0  0  0
 12  7  1  0  0  0  0
 13  6  1  0  0  0  0
 14  5  1  0  0  0  0
 15 22  1  0  0  0  0
 16 14  1  0  0  0  0
 17 14  2  0  0  0  0
 18 20  2  0  0  0  0
 19  1  1  0  0  0  0
 20 17  1  0  0  0  0
 21 16  2  0  0  0  0
 22 11  2  0  0  0  0
 23 11  1  0  0  0  0
 24 15  2  0  0  0  0
 25 23  2  0  0  0  0
 13  3  1  0  0  0  0
 25 24  1  0  0  0  0
 21 18  1  0  0  0  0
M  END
> <Molecule Name>
DNDI1489893

> <CDD Number>
CDD-1535687

> <IC50_uM>
0.365 (n=1)

$$$$

SketchEl molfile

 32 35  0  0  0  0  0  0  0  0999 V2000
    5.7157   -8.8878    0.0000 C   0  0  0  0  0  0  0  0  0  0  0  0
    5.7146   -9.7148    0.0000 C   0  0  0  0  0  0  0  0  0  0  0  0
    6.4291  -10.1276    0.0000 C   0  0  0  0  0  0  0  0  0  0  0  0
    7.1453   -9.7144    0.0000 C   0  0  0  0  0  0  0  0  0  0  0  0
    7.1425   -8.8841    0.0000 C   0  0  0  0  0  0  0  0  0  0  0  0
    6.4273   -8.4751    0.0000 C   0  0  0  0  0  0  0  0  0  0  0  0
    7.8551   -8.4690    0.0000 C   0  0  0  0  0  0  0  0  0  0  0  0
    8.5709   -8.8787    0.0000 C   0  0  0  0  0  0  0  0  0  0  0  0
    7.8520   -7.6443    0.0000 N   0  3  0  0  0  0  0  0  0  0  0  0
    8.5647   -7.2294    0.0000 C   0  0  0  0  0  0  0  0  0  0  0  0
    9.2755   -7.6418    0.0000 C   0  0  0  0  0  0  0  0  0  0  0  0
    9.9861   -7.2304    0.0000 C   0  0  0  0  0  0  0  0  0  0  0  0
    9.9873   -6.4052    0.0000 N   0  0  0  0  0  0  0  0  0  0  0  0
    9.2716   -5.9934    0.0000 C   0  0  0  0  0  0  0  0  0  0  0  0
    8.5549   -6.4065    0.0000 C   0  0  0  0  0  0  0  0  0  0  0  0
    8.5707   -9.7011    0.0000 C   0  0  0  0  0  0  0  0  0  0  0  0
    9.2855  -10.1107    0.0000 N   0  0  0  0  0  0  0  0  0  0  0  0
    9.9992   -9.6956    0.0000 C   0  0  0  0  0  0  0  0  0  0  0  0
    9.9935   -8.8666    0.0000 C   0  0  0  0  0  0  0  0  0  0  0  0
    9.2779   -8.4607    0.0000 C   0  0  0  0  0  0  0  0  0  0  0  0
   10.7015   -5.9929    0.0000 C   0  0  0  0  0  0  0  0  0  0  0  0
   11.4521   -6.3272    0.0000 S   0  0  0  0  0  0  0  0  0  0  0  0
   12.0039   -5.7143    0.0000 C   0  0  0  0  0  0  0  0  0  0  0  0
   11.5916   -5.0000    0.0000 C   0  0  0  0  0  0  0  0  0  0  0  0
   10.7849   -5.1716    0.0000 N   0  0  0  0  0  0  0  0  0  0  0  0
    7.0250   -7.6424    0.0000 Cl  0  5  0  0  0  0  0  0  0  0  0  0
    5.0000  -10.1267    0.0000 C   0  0  0  0  0  0  0  0  0  0  0  0
    4.2860   -9.7137    0.0000 F   0  0  0  0  0  0  0  0  0  0  0  0
    4.9993  -10.9514    0.0000 F   0  0  0  0  0  0  0  0  0  0  0  0
    4.7872   -9.3299    0.0000 F   0  0  0  0  0  0  0  0  0  0  0  0
    7.4332   -6.9260    0.0000 H   0  0  0  0  0  0  0  0  0  0  0  0
    7.2624   -8.2255    0.0000 H   0  0  0  0  0  0  0  0  0  0  0  0
  2 27  1  0  0  0  0
 27 28  1  0  0  0  0
 27 29  1  0  0  0  0
 27 30  1  0  0  0  0
 14 15  1  0  0  0  0
  8 16  2  0  0  0  0
  3  4  2  0  0  0  0
 16 17  1  0  0  0  0
  7  8  1  0  0  0  0
 17 18  2  0  0  0  0
 18 19  1  0  0  0  0
  7  9  1  0  0  0  0
 19 20  2  0  0  0  0
 20  8  1  0  0  0  0
  4  5  1  0  0  0  0
 13 21  1  0  0  0  0
 21 22  1  0  0  0  0
  9 10  1  0  0  0  0
 10 11  1  0  0  0  0
  2  3  1  0  0  0  0
  5  6  2  0  0  0  0
 22 23  1  0  0  0  0
 23 24  2  0  0  0  0
 24 25  1  0  0  0  0
 25 21  2  0  0  0  0
  6  1  1  0  0  0  0
  1  2  2  0  0  0  0
  5  7  1  0  0  0  0
  9 26  1  0  0  0  0
 10 15  1  0  0  0  0
 11 12  1  0  0  0  0
 12 13  1  0  0  0  0
 13 14  1  0  0  0  0
  9 31  1  0  0  0  0
  9 32  1  0  0  0  0
M  CHG  2   9   1  26  -1
M  END
> <Molecule Name>
DNDI1489894

> <IC50_uM>
0.0095 (n=1)

$$$$

SketchEl molfile

 29 32  0  0  0  0  0  0  0  0999 V2000
    5.7157  -10.6720    0.0000 C   0  0  0  0  0  0  0  0  0  0  0  0
    5.7146  -11.4991    0.0000 C   0  0  0  0  0  0  0  0  0  0  0  0
    6.4291  -11.9119    0.0000 C   0  0  0  0  0  0  0  0  0  0  0  0
    7.1453  -11.4986    0.0000 C   0  0  0  0  0  0  0  0  0  0  0  0
    7.1425  -10.6684    0.0000 C   0  0  0  0  0  0  0  0  0  0  0  0
    6.4273  -10.2594    0.0000 C   0  0  0  0  0  0  0  0  0  0  0  0
    7.8551  -10.2533    0.0000 C   0  0  0  0  0  0  0  0  0  0  0  0
    8.5709  -10.6630    0.0000 C   0  0  0  0  0  0  0  0  0  0  0  0
    7.8520   -9.4286    0.0000 N   0  0  0  0  0  0  0  0  0  0  0  0
    8.5659   -9.0181    0.0000 C   0  0  0  0  0  0  0  0  0  0  0  0
    8.5648   -8.1969    0.0000 C   0  0  0  0  0  0  0  0  0  0  0  0
    7.8508   -7.7834    0.0000 N   0  0  0  0  0  0  0  0  0  0  0  0
    7.1363   -8.1972    0.0000 C   0  0  0  0  0  0  0  0  0  0  0  0
    7.1358   -9.0246    0.0000 C   0  0  0  0  0  0  0  0  0  0  0  0
    8.5707  -11.4854    0.0000 C   0  0  0  0  0  0  0  0  0  0  0  0
    9.2855  -11.8950    0.0000 N   0  0  0  0  0  0  0  0  0  0  0  0
    9.9992  -11.4798    0.0000 C   0  0  0  0  0  0  0  0  0  0  0  0
    9.9935  -10.6509    0.0000 N   0  0  0  0  0  0  0  0  0  0  0  0
    9.2779  -10.2450    0.0000 C   0  0  0  0  0  0  0  0  0  0  0  0
    7.8508   -6.9587    0.0000 C   0  0  0  0  0  0  0  0  0  0  0  0
    8.5651   -6.5463    0.0000 N   0  0  0  0  0  0  0  0  0  0  0  0
    7.1366   -6.5463    0.0000 O   0  0  0  0  0  0  0  0  0  0  0  0
    8.5578   -5.7196    0.0000 C   0  0  0  0  0  0  0  0  0  0  0  0
    8.9650   -5.0000    0.0000 C   0  0  0  0  0  0  0  0  0  0  0  0
    8.1382   -5.0072    0.0000 C   0  0  0  0  0  0  0  0  0  0  0  0
    5.0000  -11.9109    0.0000 C   0  0  0  0  0  0  0  0  0  0  0  0
    4.2860  -11.4980    0.0000 F   0  0  0  0  0  0  0  0  0  0  0  0
    4.9993  -12.7356    0.0000 F   0  0  0  0  0  0  0  0  0  0  0  0
    4.7872  -11.1142    0.0000 F   0  0  0  0  0  0  0  0  0  0  0  0
  2 26  1  0  0  0  0
 26 27  1  0  0  0  0
 26 28  1  0  0  0  0
 26 29  1  0  0  0  0
 13 14  1  0  0  0  0
  5  7  1  0  0  0  0
  8 15  2  0  0  0  0
  3  4  2  0  0  0  0
 15 16  1  0  0  0  0
  7  8  1  0  0  0  0
 16 17  2  0  0  0  0
 17 18  1  0  0  0  0
  7  9  1  0  0  0  0
 18 19  2  0  0  0  0
 19  8  1  0  0  0  0
  9 10  1  0  0  0  0
 12 20  1  0  0  0  0
  4  5  1  0  0  0  0
 20 21  1  0  0  0  0
  2  3  1  0  0  0  0
 20 22  2  0  0  0  0
  5  6  2  0  0  0  0
 21 23  1  0  0  0  0
 24 23  1  0  0  0  0
 25 24  1  0  0  0  0
 23 25  1  0  0  0  0
  6  1  1  0  0  0  0
  1  2  2  0  0  0  0
  9 14  1  0  0  0  0
 10 11  1  0  0  0  0
 11 12  1  0  0  0  0
 12 13  1  0  0  0  0
M  END
> <Molecule Name>
DNDI1489895

> <CDD Number>
CDD-1535689

> <IC50_uM>
> 1.0 (n=1)

$$$$

SketchEl molfile

 29 32  0  0  0  0  0  0  0  0999 V2000
    5.7158  -10.6522    0.0000 C   0  0  0  0  0  0  0  0  0  0  0  0
    5.7147  -11.4795    0.0000 C   0  0  0  0  0  0  0  0  0  0  0  0
    6.4295  -11.8924    0.0000 C   0  0  0  0  0  0  0  0  0  0  0  0
    7.1458  -11.4790    0.0000 C   0  0  0  0  0  0  0  0  0  0  0  0
    7.1430  -10.6486    0.0000 C   0  0  0  0  0  0  0  0  0  0  0  0
    6.4277  -10.2395    0.0000 C   0  0  0  0  0  0  0  0  0  0  0  0
    7.8559  -10.2334    0.0000 C   0  0  0  0  0  0  0  0  0  0  0  0
    8.5718  -10.6432    0.0000 C   0  0  0  0  0  0  0  0  0  0  0  0
    7.8528   -9.4084    0.0000 N   0  0  0  0  0  0  0  0  0  0  0  0
    8.5668   -8.9978    0.0000 C   0  0  0  0  0  0  0  0  0  0  0  0
    8.5657   -8.1764    0.0000 C   0  0  0  0  0  0  0  0  0  0  0  0
    7.8516   -7.7628    0.0000 N   0  0  0  0  0  0  0  0  0  0  0  0
    7.1368   -8.1767    0.0000 C   0  0  0  0  0  0  0  0  0  0  0  0
    7.1363   -9.0043    0.0000 C   0  0  0  0  0  0  0  0  0  0  0  0
    8.5716  -11.4658    0.0000 C   0  0  0  0  0  0  0  0  0  0  0  0
    9.2867  -11.8755    0.0000 N   0  0  0  0  0  0  0  0  0  0  0  0
   10.0005  -11.4602    0.0000 C   0  0  0  0  0  0  0  0  0  0  0  0
    9.9948  -10.6311    0.0000 N   0  0  0  0  0  0  0  0  0  0  0  0
    9.2791  -10.2251    0.0000 C   0  0  0  0  0  0  0  0  0  0  0  0
    7.8516   -6.9378    0.0000 C   0  0  0  0  0  0  0  0  0  0  0  0
    8.5166   -6.4519    0.0000 O   0  0  0  0  0  0  0  0  0  0  0  0
    8.2618   -5.6673    0.0000 N   0  0  0  0  0  0  0  0  0  0  0  0
    7.4367   -5.6673    0.0000 C   0  0  0  0  0  0  0  0  0  0  0  0
    7.1819   -6.4519    0.0000 N   0  0  0  0  0  0  0  0  0  0  0  0
    6.9519   -5.0000    0.0000 C   0  0  0  0  0  0  0  0  0  0  0  0
    5.0000  -11.8914    0.0000 C   0  0  0  0  0  0  0  0  0  0  0  0
    4.2859  -11.4784    0.0000 F   0  0  0  0  0  0  0  0  0  0  0  0
    4.9993  -12.7163    0.0000 F   0  0  0  0  0  0  0  0  0  0  0  0
    4.7871  -11.0944    0.0000 F   0  0  0  0  0  0  0  0  0  0  0  0
  2 26  1  0  0  0  0
 26 27  1  0  0  0  0
 26 28  1  0  0  0  0
 26 29  1  0  0  0  0
 13 14  1  0  0  0  0
  5  7  1  0  0  0  0
  8 15  2  0  0  0  0
  3  4  2  0  0  0  0
 15 16  1  0  0  0  0
  7  8  1  0  0  0  0
 16 17  2  0  0  0  0
 17 18  1  0  0  0  0
  7  9  1  0  0  0  0
 18 19  2  0  0  0  0
 19  8  1  0  0  0  0
  9 10  1  0  0  0  0
 12 20  1  0  0  0  0
 20 21  1  0  0  0  0
  4  5  1  0  0  0  0
  2  3  1  0  0  0  0
  5  6  2  0  0  0  0
  6  1  1  0  0  0  0
 21 22  1  0  0  0  0
 22 23  2  0  0  0  0
 23 24  1  0  0  0  0
 24 20  2  0  0  0  0
  1  2  2  0  0  0  0
 23 25  1  0  0  0  0
  9 14  1  0  0  0  0
 10 11  1  0  0  0  0
 11 12  1  0  0  0  0
 12 13  1  0  0  0  0
M  END
> <Molecule Name>
DNDI1489896

> <CDD Number>
CDD-1535690

> <IC50_uM>
0.1925 (n=1)

$$$$

SketchEl molfile

 28 31  0  0  0  0  0  0  0  0999 V2000
    5.7158   -9.9848    0.0000 C   0  0  0  0  0  0  0  0  0  0  0  0
    5.7147  -10.8121    0.0000 C   0  0  0  0  0  0  0  0  0  0  0  0
    6.4295  -11.2250    0.0000 C   0  0  0  0  0  0  0  0  0  0  0  0
    7.1458  -10.8116    0.0000 C   0  0  0  0  0  0  0  0  0  0  0  0
    7.1430   -9.9812    0.0000 C   0  0  0  0  0  0  0  0  0  0  0  0
    6.4277   -9.5721    0.0000 C   0  0  0  0  0  0  0  0  0  0  0  0
    7.8559   -9.5660    0.0000 C   0  0  0  0  0  0  0  0  0  0  0  0
    8.5718   -9.9758    0.0000 C   0  0  0  0  0  0  0  0  0  0  0  0
    7.8528   -8.7411    0.0000 N   0  0  0  0  0  0  0  0  0  0  0  0
    8.5668   -8.3304    0.0000 C   0  0  0  0  0  0  0  0  0  0  0  0
    8.5657   -7.5091    0.0000 C   0  0  0  0  0  0  0  0  0  0  0  0
    7.8516   -7.0954    0.0000 N   0  0  0  0  0  0  0  0  0  0  0  0
    7.1368   -7.5094    0.0000 C   0  0  0  0  0  0  0  0  0  0  0  0
    7.1363   -8.3369    0.0000 C   0  0  0  0  0  0  0  0  0  0  0  0
    8.5716  -10.7984    0.0000 C   0  0  0  0  0  0  0  0  0  0  0  0
    9.2867  -11.2081    0.0000 N   0  0  0  0  0  0  0  0  0  0  0  0
   10.0005  -10.7928    0.0000 C   0  0  0  0  0  0  0  0  0  0  0  0
    9.9948   -9.9637    0.0000 N   0  0  0  0  0  0  0  0  0  0  0  0
    9.2791   -9.5577    0.0000 C   0  0  0  0  0  0  0  0  0  0  0  0
    7.8516   -6.2705    0.0000 C   0  0  0  0  0  0  0  0  0  0  0  0
    8.5166   -5.7845    0.0000 S   0  0  0  0  0  0  0  0  0  0  0  0
    8.2617   -5.0000    0.0000 C   0  0  0  0  0  0  0  0  0  0  0  0
    7.4367   -5.0000    0.0000 C   0  0  0  0  0  0  0  0  0  0  0  0
    7.1819   -5.7845    0.0000 N   0  0  0  0  0  0  0  0  0  0  0  0
    5.0000  -11.2240    0.0000 C   0  0  0  0  0  0  0  0  0  0  0  0
    4.2859  -10.8110    0.0000 F   0  0  0  0  0  0  0  0  0  0  0  0
    4.9993  -12.0489    0.0000 F   0  0  0  0  0  0  0  0  0  0  0  0
    4.7871  -10.4270    0.0000 F   0  0  0  0  0  0  0  0  0  0  0  0
  2 25  1  0  0  0  0
 25 26  1  0  0  0  0
 25 27  1  0  0  0  0
 25 28  1  0  0  0  0
 12 13  1  0  0  0  0
 13 14  1  0  0  0  0
  5  7  1  0  0  0  0
  8 15  2  0  0  0  0
  3  4  2  0  0  0  0
 15 16  1  0  0  0  0
  7  8  1  0  0  0  0
 16 17  2  0  0  0  0
 17 18  1  0  0  0  0
  7  9  1  0  0  0  0
 18 19  2  0  0  0  0
 19  8  1  0  0  0  0
  9 10  1  0  0  0  0
 12 20  1  0  0  0  0
 20 21  1  0  0  0  0
  4  5  1  0  0  0  0
  2  3  1  0  0  0  0
  5  6  2  0  0  0  0
  6  1  1  0  0  0  0
 21 22  1  0  0  0  0
 22 23  2  0  0  0  0
 23 24  1  0  0  0  0
 24 20  2  0  0  0  0
  1  2  2  0  0  0  0
  9 14  1  0  0  0  0
 10 11  1  0  0  0  0
 11 12  1  0  0  0  0
M  END
> <Molecule Name>
DNDI1489897

> <CDD Number>
CDD-1535691

> <IC50_uM>
0.109 (n=1)

$$$$

SketchEl molfile

 30 33  0  0  0  0  0  0  0  0999 V2000
    5.7157  -10.6721    0.0000 C   0  0  0  0  0  0  0  0  0  0  0  0
    5.7146  -11.4992    0.0000 C   0  0  0  0  0  0  0  0  0  0  0  0
    6.4291  -11.9120    0.0000 C   0  0  0  0  0  0  0  0  0  0  0  0
    7.1453  -11.4987    0.0000 C   0  0  0  0  0  0  0  0  0  0  0  0
    7.1425  -10.6685    0.0000 C   0  0  0  0  0  0  0  0  0  0  0  0
    6.4273  -10.2595    0.0000 C   0  0  0  0  0  0  0  0  0  0  0  0
    7.8552  -10.2534    0.0000 C   0  0  0  0  0  0  0  0  0  0  0  0
    8.5709  -10.6631    0.0000 C   0  0  0  0  0  0  0  0  0  0  0  0
    7.8521   -9.4287    0.0000 N   0  0  0  0  0  0  0  0  0  0  0  0
    8.5659   -9.0181    0.0000 C   0  0  0  0  0  0  0  0  0  0  0  0
    8.5648   -8.1970    0.0000 C   0  0  0  0  0  0  0  0  0  0  0  0
    7.8509   -7.7834    0.0000 N   0  0  0  0  0  0  0  0  0  0  0  0
    7.1363   -8.1973    0.0000 C   0  0  0  0  0  0  0  0  0  0  0  0
    7.1358   -9.0246    0.0000 C   0  0  0  0  0  0  0  0  0  0  0  0
    8.5707  -11.4855    0.0000 C   0  0  0  0  0  0  0  0  0  0  0  0
    9.2856  -11.8951    0.0000 N   0  0  0  0  0  0  0  0  0  0  0  0
    9.9993  -11.4799    0.0000 C   0  0  0  0  0  0  0  0  0  0  0  0
    9.9936  -10.6510    0.0000 N   0  0  0  0  0  0  0  0  0  0  0  0
    9.2780  -10.2451    0.0000 C   0  0  0  0  0  0  0  0  0  0  0  0
    7.8509   -6.9587    0.0000 C   0  0  0  0  0  0  0  0  0  0  0  0
    8.5651   -6.5463    0.0000 N   0  0  0  0  0  0  0  0  0  0  0  0
    7.1366   -6.5463    0.0000 O   0  0  0  0  0  0  0  0  0  0  0  0
    8.5578   -5.7196    0.0000 C   0  0  0  0  0  0  0  0  0  0  0  0
    8.9650   -5.0000    0.0000 C   0  0  0  0  0  0  0  0  0  0  0  0
    8.1383   -5.0072    0.0000 C   0  0  0  0  0  0  0  0  0  0  0  0
    6.4248   -9.4348    0.0000 F   0  0  0  0  0  0  0  0  0  0  0  0
    5.0000  -11.9110    0.0000 C   0  0  0  0  0  0  0  0  0  0  0  0
    4.2860  -11.4981    0.0000 F   0  0  0  0  0  0  0  0  0  0  0  0
    4.9993  -12.7357    0.0000 F   0  0  0  0  0  0  0  0  0  0  0  0
    4.7872  -11.1142    0.0000 F   0  0  0  0  0  0  0  0  0  0  0  0
  2 27  1  0  0  0  0
 27 28  1  0  0  0  0
 27 29  1  0  0  0  0
 27 30  1  0  0  0  0
  5  7  1  0  0  0  0
  8 15  2  0  0  0  0
  3  4  2  0  0  0  0
 15 16  1  0  0  0  0
  7  8  1  0  0  0  0
 16 17  2  0  0  0  0
 17 18  1  0  0  0  0
  7  9  1  0  0  0  0
 18 19  2  0  0  0  0
 19  8  1  0  0  0  0
  9 10  1  0  0  0  0
 12 20  1  0  0  0  0
  4  5  1  0  0  0  0
 20 21  1  0  0  0  0
  2  3  1  0  0  0  0
 20 22  2  0  0  0  0
  5  6  2  0  0  0  0
 21 23  1  0  0  0  0
 24 23  1  0  0  0  0
 25 24  1  0  0  0  0
 23 25  1  0  0  0  0
  6  1  1  0  0  0  0
  1  2  2  0  0  0  0
  9 14  1  0  0  0  0
  6 26  1  0  0  0  0
 10 11  1  0  0  0  0
 11 12  1  0  0  0  0
 12 13  1  0  0  0  0
 13 14  1  0  0  0  0
M  END
> <Molecule Name>
DNDI1489898

> <CDD Number>
CDD-1535692

> <IC50_uM>
0.4895 (n=1)

$$$$

SketchEl molfile

 28 31  0  0  0  0  0  0  0  0999 V2000
    5.7160   -9.8442    0.0000 C   0  0  0  0  0  0  0  0  0  0  0  0
    5.7149  -10.6717    0.0000 C   0  0  0  0  0  0  0  0  0  0  0  0
    6.4297  -11.0846    0.0000 C   0  0  0  0  0  0  0  0  0  0  0  0
    7.1462  -10.6712    0.0000 C   0  0  0  0  0  0  0  0  0  0  0  0
    7.1434   -9.8406    0.0000 C   0  0  0  0  0  0  0  0  0  0  0  0
    6.4279   -9.4315    0.0000 C   0  0  0  0  0  0  0  0  0  0  0  0
    7.8564   -9.4254    0.0000 C   0  0  0  0  0  0  0  0  0  0  0  0
    8.5724   -9.8352    0.0000 C   0  0  0  0  0  0  0  0  0  0  0  0
    7.8533   -8.6003    0.0000 N   0  0  0  0  0  0  0  0  0  0  0  0
    8.5674   -8.1896    0.0000 C   0  0  0  0  0  0  0  0  0  0  0  0
    8.5663   -7.3681    0.0000 C   0  0  0  0  0  0  0  0  0  0  0  0
    7.8521   -6.9544    0.0000 N   0  0  0  0  0  0  0  0  0  0  0  0
    7.1372   -7.3684    0.0000 C   0  0  0  0  0  0  0  0  0  0  0  0
    7.1367   -8.1961    0.0000 C   0  0  0  0  0  0  0  0  0  0  0  0
    8.5722  -10.6580    0.0000 C   0  0  0  0  0  0  0  0  0  0  0  0
    9.2874  -11.0677    0.0000 N   0  0  0  0  0  0  0  0  0  0  0  0
   10.0013  -10.6524    0.0000 C   0  0  0  0  0  0  0  0  0  0  0  0
    9.9956   -9.8231    0.0000 N   0  0  0  0  0  0  0  0  0  0  0  0
    9.2798   -9.4171    0.0000 C   0  0  0  0  0  0  0  0  0  0  0  0
    7.8521   -6.1293    0.0000 C   0  0  0  0  0  0  0  0  0  0  0  0
    7.1375   -5.7167    0.0000 O   0  0  0  0  0  0  0  0  0  0  0  0
    8.5666   -5.7167    0.0000 C   0  0  0  0  0  0  0  0  0  0  0  0
    9.3883   -5.7145    0.0000 C   0  0  0  0  0  0  0  0  0  0  0  0
    8.9758   -5.0000    0.0000 C   0  0  0  0  0  0  0  0  0  0  0  0
    5.0000  -11.0836    0.0000 C   0  0  0  0  0  0  0  0  0  0  0  0
    4.2857  -10.6706    0.0000 F   0  0  0  0  0  0  0  0  0  0  0  0
    4.9993  -11.9087    0.0000 F   0  0  0  0  0  0  0  0  0  0  0  0
    4.7871  -10.2866    0.0000 F   0  0  0  0  0  0  0  0  0  0  0  0
  2 25  1  0  0  0  0
 25 26  1  0  0  0  0
 25 27  1  0  0  0  0
 25 28  1  0  0  0  0
 12 13  1  0  0  0  0
 13 14  1  0  0  0  0
  5  7  1  0  0  0  0
  8 15  2  0  0  0  0
  3  4  2  0  0  0  0
 15 16  1  0  0  0  0
  7  8  1  0  0  0  0
 16 17  2  0  0  0  0
 17 18  1  0  0  0  0
  7  9  1  0  0  0  0
 18 19  2  0  0  0  0
 19  8  1  0  0  0  0
  9 10  1  0  0  0  0
 12 20  1  0  0  0  0
  4  5  1  0  0  0  0
 20 21  2  0  0  0  0
  2  3  1  0  0  0  0
 20 22  1  0  0  0  0
 23 22  1  0  0  0  0
 24 23  1  0  0  0  0
 22 24  1  0  0  0  0
  5  6  2  0  0  0  0
  6  1  1  0  0  0  0
  1  2  2  0  0  0  0
  9 14  1  0  0  0  0
 10 11  1  0  0  0  0
 11 12  1  0  0  0  0
M  END
> <Molecule Name>
DNDI1489899

> <CDD Number>
CDD-1535693

> <IC50_uM>
0.332 (n=1)

$$$$

SketchEl molfile

 29 32  0  0  0  0  0  0  0  0999 V2000
    5.7160   -9.8442    0.0000 C   0  0  0  0  0  0  0  0  0  0  0  0
    5.7149  -10.6716    0.0000 C   0  0  0  0  0  0  0  0  0  0  0  0
    6.4297  -11.0845    0.0000 C   0  0  0  0  0  0  0  0  0  0  0  0
    7.1462  -10.6712    0.0000 C   0  0  0  0  0  0  0  0  0  0  0  0
    7.1434   -9.8405    0.0000 C   0  0  0  0  0  0  0  0  0  0  0  0
    6.4279   -9.4314    0.0000 C   0  0  0  0  0  0  0  0  0  0  0  0
    7.8563   -9.4253    0.0000 C   0  0  0  0  0  0  0  0  0  0  0  0
    8.5724   -9.8351    0.0000 C   0  0  0  0  0  0  0  0  0  0  0  0
    7.8532   -8.6002    0.0000 N   0  0  0  0  0  0  0  0  0  0  0  0
    8.5674   -8.1895    0.0000 C   0  0  0  0  0  0  0  0  0  0  0  0
    8.5663   -7.3680    0.0000 C   0  0  0  0  0  0  0  0  0  0  0  0
    7.8520   -6.9544    0.0000 N   0  0  0  0  0  0  0  0  0  0  0  0
    7.1372   -7.3683    0.0000 C   0  0  0  0  0  0  0  0  0  0  0  0
    7.1367   -8.1961    0.0000 C   0  0  0  0  0  0  0  0  0  0  0  0
    8.5722  -10.6579    0.0000 C   0  0  0  0  0  0  0  0  0  0  0  0
    9.2874  -11.0676    0.0000 N   0  0  0  0  0  0  0  0  0  0  0  0
   10.0013  -10.6524    0.0000 C   0  0  0  0  0  0  0  0  0  0  0  0
    9.9956   -9.8230    0.0000 N   0  0  0  0  0  0  0  0  0  0  0  0
    9.2798   -9.4170    0.0000 C   0  0  0  0  0  0  0  0  0  0  0  0
    7.8520   -6.1293    0.0000 C   0  0  0  0  0  0  0  0  0  0  0  0
    7.1375   -5.7168    0.0000 O   0  0  0  0  0  0  0  0  0  0  0  0
    8.5666   -5.7168    0.0000 C   0  0  0  0  0  0  0  0  0  0  0  0
    9.3883   -5.7145    0.0000 C   0  0  0  0  0  0  0  0  0  0  0  0
    8.9757   -5.0000    0.0000 C   0  0  0  0  0  0  0  0  0  0  0  0
    6.4254   -8.6063    0.0000 F   0  0  0  0  0  0  0  0  0  0  0  0
    5.0000  -11.0836    0.0000 C   0  0  0  0  0  0  0  0  0  0  0  0
    4.2857  -10.6705    0.0000 F   0  0  0  0  0  0  0  0  0  0  0  0
    4.9993  -11.9087    0.0000 F   0  0  0  0  0  0  0  0  0  0  0  0
    4.7871  -10.2865    0.0000 F   0  0  0  0  0  0  0  0  0  0  0  0
  2 26  1  0  0  0  0
 26 27  1  0  0  0  0
 26 28  1  0  0  0  0
 26 29  1  0  0  0  0
 13 14  1  0  0  0  0
  5  7  1  0  0  0  0
  8 15  2  0  0  0  0
  3  4  2  0  0  0  0
 15 16  1  0  0  0  0
  7  8  1  0  0  0  0
 16 17  2  0  0  0  0
 17 18  1  0  0  0  0
  7  9  1  0  0  0  0
 18 19  2  0  0  0  0
 19  8  1  0  0  0  0
  9 10  1  0  0  0  0
 12 20  1  0  0  0  0
  4  5  1  0  0  0  0
 20 21  2  0  0  0  0
  2  3  1  0  0  0  0
 20 22  1  0  0  0  0
 23 22  1  0  0  0  0
 24 23  1  0  0  0  0
 22 24  1  0  0  0  0
  5  6  2  0  0  0  0
  6  1  1  0  0  0  0
  1  2  2  0  0  0  0
  6 25  1  0  0  0  0
  9 14  1  0  0  0  0
 10 11  1  0  0  0  0
 11 12  1  0  0  0  0
 12 13  1  0  0  0  0
M  END
> <Molecule Name>
DNDI1489900

> <CDD Number>
CDD-1535694

> <IC50_uM>
0.1775 (n=1)

$$$$

SketchEl molfile

 28 30  0  0  0  0  0  0  0  0999 V2000
    5.7158   -9.5410    0.0000 C   0  0  0  0  0  0  0  0  0  0  0  0
    5.7147  -10.3683    0.0000 C   0  0  0  0  0  0  0  0  0  0  0  0
    6.4294  -10.7812    0.0000 C   0  0  0  0  0  0  0  0  0  0  0  0
    7.1458  -10.3678    0.0000 C   0  0  0  0  0  0  0  0  0  0  0  0
    7.1430   -9.5374    0.0000 C   0  0  0  0  0  0  0  0  0  0  0  0
    6.4276   -9.1284    0.0000 C   0  0  0  0  0  0  0  0  0  0  0  0
    7.8558   -9.1223    0.0000 C   0  0  0  0  0  0  0  0  0  0  0  0
    8.5717   -9.5320    0.0000 C   0  0  0  0  0  0  0  0  0  0  0  0
    7.8527   -8.2974    0.0000 N   0  0  0  0  0  0  0  0  0  0  0  0
    8.5667   -7.8867    0.0000 C   0  0  0  0  0  0  0  0  0  0  0  0
    8.5656   -7.0654    0.0000 C   0  0  0  0  0  0  0  0  0  0  0  0
    7.8515   -6.6518    0.0000 N   0  0  0  0  0  0  0  0  0  0  0  0
    7.1368   -7.0657    0.0000 C   0  0  0  0  0  0  0  0  0  0  0  0
    7.1363   -7.8932    0.0000 C   0  0  0  0  0  0  0  0  0  0  0  0
    8.5715  -10.3546    0.0000 C   0  0  0  0  0  0  0  0  0  0  0  0
    9.2865  -10.7643    0.0000 N   0  0  0  0  0  0  0  0  0  0  0  0
   10.0003  -10.3490    0.0000 C   0  0  0  0  0  0  0  0  0  0  0  0
    9.9946   -9.5199    0.0000 N   0  0  0  0  0  0  0  0  0  0  0  0
    9.2789   -9.1140    0.0000 C   0  0  0  0  0  0  0  0  0  0  0  0
    7.8515   -5.8269    0.0000 S   0  0  0  0  0  0  0  0  0  0  0  0
    6.4251   -8.3035    0.0000 F   0  0  0  0  0  0  0  0  0  0  0  0
    7.0255   -5.8249    0.0000 O   0  0  0  0  0  0  0  0  0  0  0  0
    8.6753   -5.8249    0.0000 O   0  0  0  0  0  0  0  0  0  0  0  0
    7.8462   -5.0000    0.0000 C   0  0  0  0  0  0  0  0  0  0  0  0
    5.0000  -10.7802    0.0000 C   0  0  0  0  0  0  0  0  0  0  0  0
    4.2859  -10.3672    0.0000 F   0  0  0  0  0  0  0  0  0  0  0  0
    4.9993  -11.6051    0.0000 F   0  0  0  0  0  0  0  0  0  0  0  0
    4.7871   -9.9833    0.0000 F   0  0  0  0  0  0  0  0  0  0  0  0
  2 25  1  0  0  0  0
 25 26  1  0  0  0  0
 25 27  1  0  0  0  0
 25 28  1  0  0  0  0
 12 13  1  0  0  0  0
 13 14  1  0  0  0  0
  5  7  1  0  0  0  0
  8 15  2  0  0  0  0
  3  4  2  0  0  0  0
 15 16  1  0  0  0  0
  7  8  1  0  0  0  0
 16 17  2  0  0  0  0
 17 18  1  0  0  0  0
  7  9  1  0  0  0  0
 18 19  2  0  0  0  0
 19  8  1  0  0  0  0
  9 10  1  0  0  0  0
 12 20  1  0  0  0  0
  4  5  1  0  0  0  0
  6 21  1  0  0  0  0
  2  3  1  0  0  0  0
 20 22  2  0  0  0  0
  5  6  2  0  0  0  0
 20 23  2  0  0  0  0
  6  1  1  0  0  0  0
 20 24  1  0  0  0  0
  1  2  2  0  0  0  0
  9 14  1  0  0  0  0
 10 11  1  0  0  0  0
 11 12  1  0  0  0  0
M  END
> <Molecule Name>
DNDI1490391

> <CDD Number>
CDD-1535695

> <IC50_uM>
0.0245 (n=1)

$$$$

SketchEl molfile

 34 37  0  0  0  0  0  0  0  0999 V2000
    6.4361   -9.9522    0.0000 C   0  0  0  0  0  0  0  0  0  0  0  0
    6.4349  -10.7796    0.0000 C   0  0  0  0  0  0  0  0  0  0  0  0
    7.1497  -11.1924    0.0000 C   0  0  0  0  0  0  0  0  0  0  0  0
    7.8662  -10.7791    0.0000 C   0  0  0  0  0  0  0  0  0  0  0  0
    7.8633   -9.9486    0.0000 C   0  0  0  0  0  0  0  0  0  0  0  0
    7.1479   -9.5394    0.0000 C   0  0  0  0  0  0  0  0  0  0  0  0
    8.5763   -9.5334    0.0000 C   0  0  0  0  0  0  0  0  0  0  0  0
    9.2923   -9.9432    0.0000 C   0  0  0  0  0  0  0  0  0  0  0  0
    8.5732   -8.7084    0.0000 N   0  0  0  0  0  0  0  0  0  0  0  0
    9.2921  -10.7658    0.0000 C   0  0  0  0  0  0  0  0  0  0  0  0
   10.0073  -11.1755    0.0000 N   0  0  0  0  0  0  0  0  0  0  0  0
   10.7212  -10.7603    0.0000 C   0  0  0  0  0  0  0  0  0  0  0  0
   10.7154   -9.9311    0.0000 C   0  0  0  0  0  0  0  0  0  0  0  0
    9.9996   -9.5251    0.0000 C   0  0  0  0  0  0  0  0  0  0  0  0
    9.2873   -8.2976    0.0000 C   0  0  0  0  0  0  0  0  0  0  0  0
    9.2862   -7.4762    0.0000 C   0  0  0  0  0  0  0  0  0  0  0  0
    8.5720   -7.0625    0.0000 C   0  0  0  0  0  0  0  0  0  0  0  0
    7.8572   -7.4765    0.0000 C   0  0  0  0  0  0  0  0  0  0  0  0
    7.8566   -8.3042    0.0000 C   0  0  0  0  0  0  0  0  0  0  0  0
    8.5720   -6.2375    0.0000 N   0  0  0  0  0  0  0  0  0  0  0  0
    9.2865   -5.8250    0.0000 C   0  0  0  0  0  0  0  0  0  0  0  0
    9.2865   -5.0000    0.0000 O   0  0  0  0  0  0  0  0  0  0  0  0
   10.0010   -6.2375    0.0000 C   0  0  0  0  0  0  0  0  0  0  0  0
    9.9973   -7.0615    0.0000 C   0  0  0  0  0  0  0  0  0  0  0  0
   10.7109   -7.4740    0.0000 C   0  0  0  0  0  0  0  0  0  0  0  0
   11.4264   -7.0614    0.0000 C   0  0  0  0  0  0  0  0  0  0  0  0
   11.4238   -6.2322    0.0000 C   0  0  0  0  0  0  0  0  0  0  0  0
   10.7095   -5.8235    0.0000 C   0  0  0  0  0  0  0  0  0  0  0  0
    5.7201  -11.1915    0.0000 C   0  0  0  0  0  0  0  0  0  0  0  0
    5.0000  -11.5981    0.0000 N   0  0  0  0  0  0  0  0  0  0  0  0
   12.1368   -5.8172    0.0000 C   0  0  0  0  0  0  0  0  0  0  0  0
   12.8527   -6.2271    0.0000 F   0  0  0  0  0  0  0  0  0  0  0  0
   12.1339   -4.9922    0.0000 F   0  0  0  0  0  0  0  0  0  0  0  0
   12.3531   -6.6133    0.0000 F   0  0  0  0  0  0  0  0  0  0  0  0
 27 31  1  0  0  0  0
 31 32  1  0  0  0  0
 31 33  1  0  0  0  0
 31 34  1  0  0  0  0
  7  9  1  0  0  0  0
  9 19  1  0  0  0  0
 15 16  1  0  0  0  0
 16 17  1  0  0  0  0
 17 18  1  0  0  0  0
 18 19  1  0  0  0  0
  4  5  1  0  0  0  0
 17 20  1  0  0  0  0
  8 10  2  0  0  0  0
 20 21  1  0  0  0  0
  2  3  1  0  0  0  0
 21 22  2  0  0  0  0
 10 11  1  0  0  0  0
 21 23  1  0  0  0  0
  5  6  2  0  0  0  0
 23 24  2  0  0  0  0
 11 12  2  0  0  0  0
 24 25  1  0  0  0  0
  6  1  1  0  0  0  0
 25 26  2  0  0  0  0
 12 13  1  0  0  0  0
 26 27  1  0  0  0  0
  1  2  2  0  0  0  0
 27 28  2  0  0  0  0
 28 23  1  0  0  0  0
 13 14  2  0  0  0  0
  2 29  1  0  0  0  0
 14  8  1  0  0  0  0
 29 30  3  0  0  0  0
  9 15  1  0  0  0  0
  5  7  1  0  0  0  0
  3  4  2  0  0  0  0
  7  8  1  0  0  0  0
M  END
> <Molecule Name>
DNDI1490392

> <CDD Number>
CDD-1535696

> <IC50_uM>
0.023 (n=1)

$$$$

SketchEl molfile

 34 37  0  0  0  0  0  0  0  0999 V2000
    6.4361   -9.9522    0.0000 C   0  0  0  0  0  0  0  0  0  0  0  0
    6.4349  -10.7796    0.0000 C   0  0  0  0  0  0  0  0  0  0  0  0
    7.1497  -11.1924    0.0000 C   0  0  0  0  0  0  0  0  0  0  0  0
    7.8662  -10.7791    0.0000 C   0  0  0  0  0  0  0  0  0  0  0  0
    7.8633   -9.9486    0.0000 C   0  0  0  0  0  0  0  0  0  0  0  0
    7.1479   -9.5394    0.0000 C   0  0  0  0  0  0  0  0  0  0  0  0
    8.5762   -9.5334    0.0000 C   0  0  0  0  0  0  0  0  0  0  0  0
    9.2923   -9.9432    0.0000 C   0  0  0  0  0  0  0  0  0  0  0  0
    8.5731   -8.7084    0.0000 N   0  0  0  0  0  0  0  0  0  0  0  0
    9.2921  -10.7658    0.0000 C   0  0  0  0  0  0  0  0  0  0  0  0
   10.0073  -11.1755    0.0000 N   0  0  0  0  0  0  0  0  0  0  0  0
   10.7212  -10.7603    0.0000 C   0  0  0  0  0  0  0  0  0  0  0  0
   10.7154   -9.9311    0.0000 C   0  0  0  0  0  0  0  0  0  0  0  0
    9.9996   -9.5251    0.0000 C   0  0  0  0  0  0  0  0  0  0  0  0
    9.2873   -8.2977    0.0000 C   0  0  0  0  0  0  0  0  0  0  0  0
    9.2862   -7.4762    0.0000 C   0  0  0  0  0  0  0  0  0  0  0  0
    8.5719   -7.0625    0.0000 C   0  0  0  0  0  0  0  0  0  0  0  0
    7.8572   -7.4765    0.0000 C   0  0  0  0  0  0  0  0  0  0  0  0
    7.8566   -8.3042    0.0000 C   0  0  0  0  0  0  0  0  0  0  0  0
    8.5719   -6.2375    0.0000 N   0  0  0  0  0  0  0  0  0  0  0  0
    9.2865   -5.8250    0.0000 C   0  0  0  0  0  0  0  0  0  0  0  0
    9.2865   -5.0000    0.0000 O   0  0  0  0  0  0  0  0  0  0  0  0
   10.0010   -6.2375    0.0000 C   0  0  0  0  0  0  0  0  0  0  0  0
    9.9973   -7.0615    0.0000 C   0  0  0  0  0  0  0  0  0  0  0  0
   10.7109   -7.4740    0.0000 C   0  0  0  0  0  0  0  0  0  0  0  0
   11.4264   -7.0614    0.0000 C   0  0  0  0  0  0  0  0  0  0  0  0
   11.4238   -6.2322    0.0000 C   0  0  0  0  0  0  0  0  0  0  0  0
   10.7095   -5.8235    0.0000 C   0  0  0  0  0  0  0  0  0  0  0  0
    5.7201  -11.1915    0.0000 C   0  0  0  0  0  0  0  0  0  0  0  0
    5.0000  -11.5981    0.0000 N   0  0  0  0  0  0  0  0  0  0  0  0
   12.1414   -7.4730    0.0000 C   0  0  0  0  0  0  0  0  0  0  0  0
   12.1425   -8.2981    0.0000 F   0  0  0  0  0  0  0  0  0  0  0  0
   12.8553   -7.0596    0.0000 F   0  0  0  0  0  0  0  0  0  0  0  0
   11.5588   -8.0572    0.0000 F   0  0  0  0  0  0  0  0  0  0  0  0
 26 31  1  0  0  0  0
 31 32  1  0  0  0  0
 31 33  1  0  0  0  0
 31 34  1  0  0  0  0
  7  9  1  0  0  0  0
  9 19  1  0  0  0  0
 15 16  1  0  0  0  0
 16 17  1  0  0  0  0
 17 18  1  0  0  0  0
 18 19  1  0  0  0  0
  4  5  1  0  0  0  0
 17 20  1  0  0  0  0
  8 10  2  0  0  0  0
 20 21  1  0  0  0  0
  2  3  1  0  0  0  0
 21 22  2  0  0  0  0
 10 11  1  0  0  0  0
 21 23  1  0  0  0  0
  5  6  2  0  0  0  0
 23 24  2  0  0  0  0
 11 12  2  0  0  0  0
 24 25  1  0  0  0  0
  6  1  1  0  0  0  0
 25 26  2  0  0  0  0
 12 13  1  0  0  0  0
 26 27  1  0  0  0  0
  1  2  2  0  0  0  0
 27 28  2  0  0  0  0
 28 23  1  0  0  0  0
 13 14  2  0  0  0  0
  2 29  1  0  0  0  0
 14  8  1  0  0  0  0
 29 30  3  0  0  0  0
  9 15  1  0  0  0  0
  5  7  1  0  0  0  0
  3  4  2  0  0  0  0
  7  8  1  0  0  0  0
M  END
> <Molecule Name>
DNDI1490393

> <CDD Number>
CDD-1535697

> <IC50_uM>
0.0205 (n=1)

$$$$

SketchEl molfile

 35 38  0  0  0  0  0  0  0  0999 V2000
    6.4361   -9.9537    0.0000 C   0  0  0  0  0  0  0  0  0  0  0  0
    6.4349  -10.7811    0.0000 C   0  0  0  0  0  0  0  0  0  0  0  0
    7.1497  -11.1939    0.0000 C   0  0  0  0  0  0  0  0  0  0  0  0
    7.8662  -10.7806    0.0000 C   0  0  0  0  0  0  0  0  0  0  0  0
    7.8633   -9.9501    0.0000 C   0  0  0  0  0  0  0  0  0  0  0  0
    7.1479   -9.5409    0.0000 C   0  0  0  0  0  0  0  0  0  0  0  0
    8.5762   -9.5349    0.0000 C   0  0  0  0  0  0  0  0  0  0  0  0
    9.2923   -9.9447    0.0000 C   0  0  0  0  0  0  0  0  0  0  0  0
    8.5731   -8.7099    0.0000 N   0  0  0  0  0  0  0  0  0  0  0  0
    9.2921  -10.7673    0.0000 C   0  0  0  0  0  0  0  0  0  0  0  0
   10.0073  -11.1770    0.0000 N   0  0  0  0  0  0  0  0  0  0  0  0
   10.7212  -10.7618    0.0000 C   0  0  0  0  0  0  0  0  0  0  0  0
   10.7154   -9.9326    0.0000 C   0  0  0  0  0  0  0  0  0  0  0  0
    9.9996   -9.5266    0.0000 C   0  0  0  0  0  0  0  0  0  0  0  0
    9.2873   -8.2992    0.0000 C   0  0  0  0  0  0  0  0  0  0  0  0
    9.2862   -7.4777    0.0000 C   0  0  0  0  0  0  0  0  0  0  0  0
    8.5719   -7.0640    0.0000 C   0  0  0  0  0  0  0  0  0  0  0  0
    7.8572   -7.4780    0.0000 C   0  0  0  0  0  0  0  0  0  0  0  0
    7.8566   -8.3057    0.0000 C   0  0  0  0  0  0  0  0  0  0  0  0
    8.5719   -6.2390    0.0000 N   0  0  0  0  0  0  0  0  0  0  0  0
    9.2865   -5.8265    0.0000 C   0  0  0  0  0  0  0  0  0  0  0  0
    9.2865   -5.0015    0.0000 O   0  0  0  0  0  0  0  0  0  0  0  0
   10.0010   -6.2390    0.0000 C   0  0  0  0  0  0  0  0  0  0  0  0
    9.9973   -7.0630    0.0000 C   0  0  0  0  0  0  0  0  0  0  0  0
   10.7109   -7.4755    0.0000 C   0  0  0  0  0  0  0  0  0  0  0  0
   11.4264   -7.0629    0.0000 C   0  0  0  0  0  0  0  0  0  0  0  0
   11.4238   -6.2337    0.0000 C   0  0  0  0  0  0  0  0  0  0  0  0
   10.7095   -5.8250    0.0000 C   0  0  0  0  0  0  0  0  0  0  0  0
    5.7201  -11.1930    0.0000 C   0  0  0  0  0  0  0  0  0  0  0  0
    5.0000  -11.5996    0.0000 N   0  0  0  0  0  0  0  0  0  0  0  0
   10.7058   -5.0000    0.0000 F   0  0  0  0  0  0  0  0  0  0  0  0
   12.1414   -7.4745    0.0000 C   0  0  0  0  0  0  0  0  0  0  0  0
   12.1425   -8.2996    0.0000 F   0  0  0  0  0  0  0  0  0  0  0  0
   12.8553   -7.0611    0.0000 F   0  0  0  0  0  0  0  0  0  0  0  0
   11.5588   -8.0587    0.0000 F   0  0  0  0  0  0  0  0  0  0  0  0
 26 32  1  0  0  0  0
 32 33  1  0  0  0  0
 32 34  1  0  0  0  0
 32 35  1  0  0  0  0
  7  9  1  0  0  0  0
  9 19  1  0  0  0  0
 15 16  1  0  0  0  0
 16 17  1  0  0  0  0
 17 18  1  0  0  0  0
 18 19  1  0  0  0  0
  4  5  1  0  0  0  0
 17 20  1  0  0  0  0
  8 10  2  0  0  0  0
 20 21  1  0  0  0  0
  2  3  1  0  0  0  0
 21 22  2  0  0  0  0
 10 11  1  0  0  0  0
 21 23  1  0  0  0  0
  5  6  2  0  0  0  0
 23 24  2  0  0  0  0
 11 12  2  0  0  0  0
 24 25  1  0  0  0  0
  6  1  1  0  0  0  0
 25 26  2  0  0  0  0
 12 13  1  0  0  0  0
 26 27  1  0  0  0  0
  1  2  2  0  0  0  0
 27 28  2  0  0  0  0
 28 23  1  0  0  0  0
 13 14  2  0  0  0  0
  2 29  1  0  0  0  0
 14  8  1  0  0  0  0
 29 30  3  0  0  0  0
  9 15  1  0  0  0  0
 28 31  1  0  0  0  0
  5  7  1  0  0  0  0
  3  4  2  0  0  0  0
  7  8  1  0  0  0  0
M  END
> <Molecule Name>
DNDI1490394

> <CDD Number>
CDD-1535698

> <IC50_uM>
0.345 (n=1)

$$$$

SketchEl molfile

 27 30  0  0  0  0  0  0  0  0999 V2000
    8.5707   -5.4125    0.0000 C   0  0  0  0  0  0  0  0  0  0  0  0
    8.5707   -6.2375    0.0000 N   0  0  0  0  0  0  0  0  0  0  0  0
    8.5707   -7.8833    0.0000 N   0  0  0  0  0  0  0  0  0  0  0  0
    9.2832   -5.0000    0.0000 N   0  0  0  0  0  0  0  0  0  0  0  0
    5.0000  -10.7748    0.0000 N   0  0  0  0  0  0  0  0  0  0  0  0
    8.5749   -8.7082    0.0000 C   0  0  0  0  0  0  0  0  0  0  0  0
    9.9998   -5.4125    0.0000 C   0  0  0  0  0  0  0  0  0  0  0  0
    5.7166  -10.3665    0.0000 C   0  0  0  0  0  0  0  0  0  0  0  0
   10.4123   -6.1250    0.0000 C   0  0  0  0  0  0  0  0  0  0  0  0
   10.8248   -5.4125    0.0000 C   0  0  0  0  0  0  0  0  0  0  0  0
    9.2915   -9.1165    0.0000 C   0  0  0  0  0  0  0  0  0  0  0  0
    7.8540   -5.0000    0.0000 O   0  0  0  0  0  0  0  0  0  0  0  0
    7.8624   -9.1249    0.0000 C   0  0  0  0  0  0  0  0  0  0  0  0
    9.2832   -6.6500    0.0000 C   0  0  0  0  0  0  0  0  0  0  0  0
    7.8540   -6.6500    0.0000 C   0  0  0  0  0  0  0  0  0  0  0  0
    9.2832   -7.4708    0.0000 C   0  0  0  0  0  0  0  0  0  0  0  0
    7.8540   -7.4791    0.0000 C   0  0  0  0  0  0  0  0  0  0  0  0
   10.0040  -10.3498    0.0000 N   0  0  0  0  0  0  0  0  0  0  0  0
    7.1457   -8.7124    0.0000 C   0  0  0  0  0  0  0  0  0  0  0  0
    7.8624   -9.9540    0.0000 C   0  0  0  0  0  0  0  0  0  0  0  0
    6.4333   -9.9540    0.0000 C   0  0  0  0  0  0  0  0  0  0  0  0
    6.4333   -9.1249    0.0000 C   0  0  0  0  0  0  0  0  0  0  0  0
    7.1457  -10.3665    0.0000 C   0  0  0  0  0  0  0  0  0  0  0  0
    9.2915   -9.9415    0.0000 C   0  0  0  0  0  0  0  0  0  0  0  0
    9.9956   -8.6999    0.0000 C   0  0  0  0  0  0  0  0  0  0  0  0
   10.7206   -9.9332    0.0000 C   0  0  0  0  0  0  0  0  0  0  0  0
   10.7123   -9.1040    0.0000 C   0  0  0  0  0  0  0  0  0  0  0  0
  2  1  1  0  0  0  0
  3 17  1  0  0  0  0
  4  1  1  0  0  0  0
  5  8  3  0  0  0  0
  6  3  1  0  0  0  0
  7  4  1  0  0  0  0
  8 21  1  0  0  0  0
  9  7  1  0  0  0  0
 10  7  1  0  0  0  0
 11  6  1  0  0  0  0
 12  1  2  0  0  0  0
 13  6  1  0  0  0  0
 14  2  1  0  0  0  0
 15  2  1  0  0  0  0
 16 14  1  0  0  0  0
 17 15  1  0  0  0  0
 18 24  1  0  0  0  0
 19 13  2  0  0  0  0
 20 13  1  0  0  0  0
 21 22  2  0  0  0  0
 22 19  1  0  0  0  0
 23 20  2  0  0  0  0
 24 11  2  0  0  0  0
 25 11  1  0  0  0  0
 26 18  2  0  0  0  0
 27 25  2  0  0  0  0
  9 10  1  0  0  0  0
 16  3  1  0  0  0  0
 27 26  1  0  0  0  0
 23 21  1  0  0  0  0
M  END
> <Molecule Name>
DNDI1490395

> <CDD Number>
CDD-1535699

> <IC50_uM>
> 1.0 (n=1)

$$$$

SketchEl molfile

 27 29  0  0  0  0  0  0  0  0999 V2000
    5.7158   -9.5410    0.0000 C   0  0  0  0  0  0  0  0  0  0  0  0
    5.7147  -10.3683    0.0000 C   0  0  0  0  0  0  0  0  0  0  0  0
    6.4294  -10.7812    0.0000 C   0  0  0  0  0  0  0  0  0  0  0  0
    7.1457  -10.3678    0.0000 C   0  0  0  0  0  0  0  0  0  0  0  0
    7.1429   -9.5374    0.0000 C   0  0  0  0  0  0  0  0  0  0  0  0
    6.4276   -9.1284    0.0000 C   0  0  0  0  0  0  0  0  0  0  0  0
    7.8558   -9.1223    0.0000 C   0  0  0  0  0  0  0  0  0  0  0  0
    8.5717   -9.5320    0.0000 C   0  0  0  0  0  0  0  0  0  0  0  0
    7.8527   -8.2974    0.0000 N   0  0  0  0  0  0  0  0  0  0  0  0
    8.5667   -7.8867    0.0000 C   0  0  0  0  0  0  0  0  0  0  0  0
    8.5656   -7.0654    0.0000 C   0  0  0  0  0  0  0  0  0  0  0  0
    7.8515   -6.6518    0.0000 N   0  0  0  0  0  0  0  0  0  0  0  0
    7.1367   -7.0657    0.0000 C   0  0  0  0  0  0  0  0  0  0  0  0
    7.1362   -7.8932    0.0000 C   0  0  0  0  0  0  0  0  0  0  0  0
    8.5715  -10.3546    0.0000 C   0  0  0  0  0  0  0  0  0  0  0  0
    9.2865  -10.7643    0.0000 N   0  0  0  0  0  0  0  0  0  0  0  0
   10.0003  -10.3490    0.0000 C   0  0  0  0  0  0  0  0  0  0  0  0
    9.9946   -9.5199    0.0000 N   0  0  0  0  0  0  0  0  0  0  0  0
    9.2789   -9.1140    0.0000 C   0  0  0  0  0  0  0  0  0  0  0  0
    7.8515   -5.8269    0.0000 S   0  0  0  0  0  0  0  0  0  0  0  0
    7.0255   -5.8249    0.0000 O   0  0  0  0  0  0  0  0  0  0  0  0
    8.6753   -5.8249    0.0000 O   0  0  0  0  0  0  0  0  0  0  0  0
    7.8462   -5.0000    0.0000 C   0  0  0  0  0  0  0  0  0  0  0  0
    5.0000  -10.7802    0.0000 C   0  0  0  0  0  0  0  0  0  0  0  0
    4.2859  -10.3672    0.0000 F   0  0  0  0  0  0  0  0  0  0  0  0
    4.9993  -11.6051    0.0000 F   0  0  0  0  0  0  0  0  0  0  0  0
    4.7871   -9.9833    0.0000 F   0  0  0  0  0  0  0  0  0  0  0  0
  2 24  1  0  0  0  0
 24 25  1  0  0  0  0
 24 26  1  0  0  0  0
 24 27  1  0  0  0  0
 11 12  1  0  0  0  0
 12 13  1  0  0  0  0
 13 14  1  0  0  0  0
  5  7  1  0  0  0  0
  8 15  2  0  0  0  0
  3  4  2  0  0  0  0
 15 16  1  0  0  0  0
  7  8  1  0  0  0  0
 16 17  2  0  0  0  0
 17 18  1  0  0  0  0
  7  9  1  0  0  0  0
 18 19  2  0  0  0  0
 19  8  1  0  0  0  0
  9 10  1  0  0  0  0
 12 20  1  0  0  0  0
  4  5  1  0  0  0  0
 20 21  2  0  0  0  0
  2  3  1  0  0  0  0
 20 22  2  0  0  0  0
  5  6  2  0  0  0  0
 20 23  1  0  0  0  0
  6  1  1  0  0  0  0
  1  2  2  0  0  0  0
  9 14  1  0  0  0  0
 10 11  1  0  0  0  0
M  END
> <Molecule Name>
DNDI1490396

> <CDD Number>
CDD-1535700

> <IC50_uM>
0.7685 (n=1)

$$$$

SketchEl molfile

 32 35  0  0  0  0  0  0  0  0999 V2000
    9.9919   -6.2417    0.0000 C   0  0  0  0  0  0  0  0  0  0  0  0
    9.2752   -5.8334    0.0000 C   0  0  0  0  0  0  0  0  0  0  0  0
   10.6961   -5.8250    0.0000 C   0  0  0  0  0  0  0  0  0  0  0  0
    8.5710   -8.7210    0.0000 N   0  0  0  0  0  0  0  0  0  0  0  0
    8.5627   -6.2459    0.0000 N   0  0  0  0  0  0  0  0  0  0  0  0
    5.0000  -11.6087    0.0000 N   0  0  0  0  0  0  0  0  0  0  0  0
    8.5752   -9.5461    0.0000 C   0  0  0  0  0  0  0  0  0  0  0  0
    5.7167  -11.2045    0.0000 C   0  0  0  0  0  0  0  0  0  0  0  0
    9.2919   -9.9544    0.0000 C   0  0  0  0  0  0  0  0  0  0  0  0
    9.2711   -5.0083    0.0000 O   0  0  0  0  0  0  0  0  0  0  0  0
    7.8627   -9.9628    0.0000 C   0  0  0  0  0  0  0  0  0  0  0  0
    9.2836   -8.3085    0.0000 C   0  0  0  0  0  0  0  0  0  0  0  0
    7.8543   -8.3169    0.0000 C   0  0  0  0  0  0  0  0  0  0  0  0
   11.4129   -6.2334    0.0000 C   0  0  0  0  0  0  0  0  0  0  0  0
   10.0044  -11.1878    0.0000 N   0  0  0  0  0  0  0  0  0  0  0  0
    8.5669   -7.0710    0.0000 C   0  0  0  0  0  0  0  0  0  0  0  0
    9.2836   -7.4876    0.0000 C   0  0  0  0  0  0  0  0  0  0  0  0
    7.8543   -7.4876    0.0000 C   0  0  0  0  0  0  0  0  0  0  0  0
    7.8627  -10.7920    0.0000 C   0  0  0  0  0  0  0  0  0  0  0  0
    7.1460   -9.5503    0.0000 C   0  0  0  0  0  0  0  0  0  0  0  0
   10.6920   -5.0000    0.0000 F   0  0  0  0  0  0  0  0  0  0  0  0
    6.4334  -10.7920    0.0000 C   0  0  0  0  0  0  0  0  0  0  0  0
    9.9878   -7.0668    0.0000 C   0  0  0  0  0  0  0  0  0  0  0  0
   12.1254   -5.8125    0.0000 F   0  0  0  0  0  0  0  0  0  0  0  0
    7.1460  -11.2045    0.0000 C   0  0  0  0  0  0  0  0  0  0  0  0
    6.4334   -9.9669    0.0000 C   0  0  0  0  0  0  0  0  0  0  0  0
    9.2919  -10.7795    0.0000 C   0  0  0  0  0  0  0  0  0  0  0  0
   10.7045   -7.4751    0.0000 C   0  0  0  0  0  0  0  0  0  0  0  0
    9.9961   -9.5378    0.0000 C   0  0  0  0  0  0  0  0  0  0  0  0
   11.4170   -7.0626    0.0000 C   0  0  0  0  0  0  0  0  0  0  0  0
   10.7211  -10.7712    0.0000 C   0  0  0  0  0  0  0  0  0  0  0  0
   10.7128   -9.9419    0.0000 C   0  0  0  0  0  0  0  0  0  0  0  0
  2  1  1  0  0  0  0
  3  1  1  0  0  0  0
  4 12  1  0  0  0  0
  5  2  1  0  0  0  0
  6  8  3  0  0  0  0
  7  4  1  0  0  0  0
  8 22  1  0  0  0  0
  9  7  1  0  0  0  0
 10  2  2  0  0  0  0
 11  7  1  0  0  0  0
 12 17  1  0  0  0  0
 13 18  1  0  0  0  0
 14  3  2  0  0  0  0
 15 27  1  0  0  0  0
 16  5  1  0  0  0  0
 17 16  1  0  0  0  0
 18 16  1  0  0  0  0
 19 11  1  0  0  0  0
 20 11  2  0  0  0  0
 21  3  1  0  0  0  0
 22 26  2  0  0  0  0
 23  1  2  0  0  0  0
 24 14  1  0  0  0  0
 25 19  2  0  0  0  0
 26 20  1  0  0  0  0
 27  9  2  0  0  0  0
 28 23  1  0  0  0  0
 29  9  1  0  0  0  0
 30 14  1  0  0  0  0
 31 15  2  0  0  0  0
 32 29  2  0  0  0  0
 30 28  2  0  0  0  0
 13  4  1  0  0  0  0
 32 31  1  0  0  0  0
 25 22  1  0  0  0  0
M  END
> <Molecule Name>
DNDI1490397

> <CDD Number>
CDD-1535701

> <IC50_uM>
0.017 (n=1)

$$$$

SketchEl molfile

 32 35  0  0  0  0  0  0  0  0999 V2000
    9.9917   -6.2417    0.0000 C   0  0  0  0  0  0  0  0  0  0  0  0
    9.2750   -5.8333    0.0000 C   0  0  0  0  0  0  0  0  0  0  0  0
    8.5708   -8.7208    0.0000 N   0  0  0  0  0  0  0  0  0  0  0  0
    8.5625   -6.2458    0.0000 N   0  0  0  0  0  0  0  0  0  0  0  0
    5.0000  -11.6125    0.0000 N   0  0  0  0  0  0  0  0  0  0  0  0
    8.5750   -9.5458    0.0000 C   0  0  0  0  0  0  0  0  0  0  0  0
   10.6958   -5.8250    0.0000 C   0  0  0  0  0  0  0  0  0  0  0  0
    5.7167  -11.2042    0.0000 C   0  0  0  0  0  0  0  0  0  0  0  0
    9.9875   -7.0667    0.0000 C   0  0  0  0  0  0  0  0  0  0  0  0
    9.2917   -9.9542    0.0000 C   0  0  0  0  0  0  0  0  0  0  0  0
    9.2708   -5.0083    0.0000 O   0  0  0  0  0  0  0  0  0  0  0  0
    7.8625   -9.9625    0.0000 C   0  0  0  0  0  0  0  0  0  0  0  0
    7.8542   -8.3167    0.0000 C   0  0  0  0  0  0  0  0  0  0  0  0
    9.2833   -8.3083    0.0000 C   0  0  0  0  0  0  0  0  0  0  0  0
   10.0042  -11.1875    0.0000 N   0  0  0  0  0  0  0  0  0  0  0  0
    8.5625   -7.0750    0.0000 C   0  0  0  0  0  0  0  0  0  0  0  0
    7.8542   -7.4875    0.0000 C   0  0  0  0  0  0  0  0  0  0  0  0
    9.2833   -7.4875    0.0000 C   0  0  0  0  0  0  0  0  0  0  0  0
   11.4125   -6.2333    0.0000 C   0  0  0  0  0  0  0  0  0  0  0  0
    7.1458   -9.5500    0.0000 C   0  0  0  0  0  0  0  0  0  0  0  0
    7.8625  -10.7917    0.0000 C   0  0  0  0  0  0  0  0  0  0  0  0
    6.4333  -10.7917    0.0000 C   0  0  0  0  0  0  0  0  0  0  0  0
   10.7042   -7.4750    0.0000 C   0  0  0  0  0  0  0  0  0  0  0  0
   10.6917   -5.0000    0.0000 F   0  0  0  0  0  0  0  0  0  0  0  0
    6.4333   -9.9625    0.0000 C   0  0  0  0  0  0  0  0  0  0  0  0
    7.1458  -11.2042    0.0000 C   0  0  0  0  0  0  0  0  0  0  0  0
   11.4167   -7.0625    0.0000 C   0  0  0  0  0  0  0  0  0  0  0  0
   10.7083   -8.3000    0.0000 F   0  0  0  0  0  0  0  0  0  0  0  0
    9.2917  -10.7792    0.0000 C   0  0  0  0  0  0  0  0  0  0  0  0
    9.9958   -9.5375    0.0000 C   0  0  0  0  0  0  0  0  0  0  0  0
   10.7208  -10.7708    0.0000 C   0  0  0  0  0  0  0  0  0  0  0  0
   10.7125   -9.9417    0.0000 C   0  0  0  0  0  0  0  0  0  0  0  0
  2  1  1  0  0  0  0
  3 14  1  0  0  0  0
  4  2  1  0  0  0  0
  5  8  3  0  0  0  0
  6  3  1  0  0  0  0
  7  1  1  0  0  0  0
  8 22  1  0  0  0  0
  9  1  2  0  0  0  0
 10  6  1  0  0  0  0
 11  2  2  0  0  0  0
 12  6  1  0  0  0  0
 13 17  1  0  0  0  0
 14 18  1  0  0  0  0
 15 29  1  0  0  0  0
 16  4  1  0  0  0  0
 17 16  1  0  0  0  0
 18 16  1  0  0  0  0
 19  7  2  0  0  0  0
 20 12  2  0  0  0  0
 21 12  1  0  0  0  0
 22 25  2  0  0  0  0
 23  9  1  0  0  0  0
 24  7  1  0  0  0  0
 25 20  1  0  0  0  0
 26 21  2  0  0  0  0
 27 19  1  0  0  0  0
 28 23  1  0  0  0  0
 29 10  2  0  0  0  0
 30 10  1  0  0  0  0
 31 15  2  0  0  0  0
 32 30  2  0  0  0  0
 27 23  2  0  0  0  0
 13  3  1  0  0  0  0
 32 31  1  0  0  0  0
 26 22  1  0  0  0  0
M  END
> <Molecule Name>
DNDI1490398

> <CDD Number>
CDD-1535702

> <IC50_uM>
0.0155 (n=1)

$$$$

SketchEl molfile

 32 35  0  0  0  0  0  0  0  0999 V2000
    9.2745   -7.4706    0.0000 C   0  0  0  0  0  0  0  0  0  0  0  0
    9.2703   -6.6457    0.0000 C   0  0  0  0  0  0  0  0  0  0  0  0
    8.5704  -10.3578    0.0000 N   0  0  0  0  0  0  0  0  0  0  0  0
    8.5621   -7.8830    0.0000 N   0  0  0  0  0  0  0  0  0  0  0  0
    5.0000  -13.2491    0.0000 N   0  0  0  0  0  0  0  0  0  0  0  0
    8.5746  -11.1827    0.0000 C   0  0  0  0  0  0  0  0  0  0  0  0
    5.7166  -12.8408    0.0000 C   0  0  0  0  0  0  0  0  0  0  0  0
    9.9911   -7.8789    0.0000 O   0  0  0  0  0  0  0  0  0  0  0  0
    9.9869   -6.2332    0.0000 C   0  0  0  0  0  0  0  0  0  0  0  0
    8.5579   -6.2416    0.0000 C   0  0  0  0  0  0  0  0  0  0  0  0
    9.2912  -11.5910    0.0000 C   0  0  0  0  0  0  0  0  0  0  0  0
    7.8622  -11.5993    0.0000 C   0  0  0  0  0  0  0  0  0  0  0  0
    9.2828   -9.9453    0.0000 C   0  0  0  0  0  0  0  0  0  0  0  0
    7.8538   -9.9536    0.0000 C   0  0  0  0  0  0  0  0  0  0  0  0
   10.0036  -12.8241    0.0000 N   0  0  0  0  0  0  0  0  0  0  0  0
    8.5621   -8.7121    0.0000 C   0  0  0  0  0  0  0  0  0  0  0  0
    9.2828   -9.1246    0.0000 C   0  0  0  0  0  0  0  0  0  0  0  0
    7.8538   -9.1246    0.0000 C   0  0  0  0  0  0  0  0  0  0  0  0
    7.8622  -12.4284    0.0000 C   0  0  0  0  0  0  0  0  0  0  0  0
    7.1456  -11.1868    0.0000 C   0  0  0  0  0  0  0  0  0  0  0  0
    6.4332  -12.4284    0.0000 C   0  0  0  0  0  0  0  0  0  0  0  0
    7.8455   -6.6582    0.0000 F   0  0  0  0  0  0  0  0  0  0  0  0
   10.6994   -6.6457    0.0000 F   0  0  0  0  0  0  0  0  0  0  0  0
    7.1456  -12.8408    0.0000 C   0  0  0  0  0  0  0  0  0  0  0  0
    6.4332  -11.5993    0.0000 C   0  0  0  0  0  0  0  0  0  0  0  0
    9.2912  -12.4159    0.0000 C   0  0  0  0  0  0  0  0  0  0  0  0
    9.2662   -5.0000    0.0000 C   0  0  0  0  0  0  0  0  0  0  0  0
    8.5496   -5.4167    0.0000 C   0  0  0  0  0  0  0  0  0  0  0  0
    9.9828   -5.4083    0.0000 C   0  0  0  0  0  0  0  0  0  0  0  0
    9.9953  -11.1743    0.0000 C   0  0  0  0  0  0  0  0  0  0  0  0
   10.7202  -12.4075    0.0000 C   0  0  0  0  0  0  0  0  0  0  0  0
   10.7119  -11.5785    0.0000 C   0  0  0  0  0  0  0  0  0  0  0  0
  2  1  1  0  0  0  0
  3 13  1  0  0  0  0
  4  1  1  0  0  0  0
  5  7  3  0  0  0  0
  6  3  1  0  0  0  0
  7 21  1  0  0  0  0
  8  1  2  0  0  0  0
  9  2  2  0  0  0  0
 10  2  1  0  0  0  0
 11  6  1  0  0  0  0
 12  6  1  0  0  0  0
 13 17  1  0  0  0  0
 14 18  1  0  0  0  0
 15 26  1  0  0  0  0
 16  4  1  0  0  0  0
 17 16  1  0  0  0  0
 18 16  1  0  0  0  0
 19 12  1  0  0  0  0
 20 12  2  0  0  0  0
 21 25  2  0  0  0  0
 22 10  1  0  0  0  0
 23  9  1  0  0  0  0
 24 19  2  0  0  0  0
 25 20  1  0  0  0  0
 26 11  2  0  0  0  0
 27 28  1  0  0  0  0
 28 10  2  0  0  0  0
 29  9  1  0  0  0  0
 30 11  1  0  0  0  0
 31 32  1  0  0  0  0
 32 30  2  0  0  0  0
 27 29  2  0  0  0  0
 14  3  1  0  0  0  0
 24 21  1  0  0  0  0
 31 15  2  0  0  0  0
M  END
> <Molecule Name>
DNDI1490399

> <CDD Number>
CDD-1535703

> <IC50_uM>
0.0199436706751791 ร/รท 1.11211717654515 (n=2)

$$$$

SketchEl molfile

 34 37  0  0  0  0  0  0  0  0999 V2000
    9.2771   -5.8328    0.0000 C   0  0  0  0  0  0  0  0  0  0  0  0
    9.9928   -6.2431    0.0000 C   0  0  0  0  0  0  0  0  0  0  0  0
    8.5730   -8.7203    0.0000 N   0  0  0  0  0  0  0  0  0  0  0  0
   10.6997   -5.8250    0.0000 C   0  0  0  0  0  0  0  0  0  0  0  0
    5.0000  -11.6100    0.0000 N   0  0  0  0  0  0  0  0  0  0  0  0
    8.5639   -6.2476    0.0000 N   0  0  0  0  0  0  0  0  0  0  0  0
    8.5761   -9.5453    0.0000 C   0  0  0  0  0  0  0  0  0  0  0  0
    5.7201  -11.2034    0.0000 C   0  0  0  0  0  0  0  0  0  0  0  0
    9.2745   -5.0078    0.0000 O   0  0  0  0  0  0  0  0  0  0  0  0
    9.2921   -9.9551    0.0000 C   0  0  0  0  0  0  0  0  0  0  0  0
    7.8565   -8.3162    0.0000 C   0  0  0  0  0  0  0  0  0  0  0  0
    9.2871   -8.3097    0.0000 C   0  0  0  0  0  0  0  0  0  0  0  0
   10.0070  -11.1875    0.0000 N   0  0  0  0  0  0  0  0  0  0  0  0
    7.8632   -9.9605    0.0000 C   0  0  0  0  0  0  0  0  0  0  0  0
   11.4152   -6.2314    0.0000 C   0  0  0  0  0  0  0  0  0  0  0  0
    7.8570   -7.4886    0.0000 C   0  0  0  0  0  0  0  0  0  0  0  0
    9.2860   -7.4883    0.0000 C   0  0  0  0  0  0  0  0  0  0  0  0
    8.5665   -7.0726    0.0000 C   0  0  0  0  0  0  0  0  0  0  0  0
    7.8660  -10.7910    0.0000 C   0  0  0  0  0  0  0  0  0  0  0  0
    7.1479   -9.5514    0.0000 C   0  0  0  0  0  0  0  0  0  0  0  0
    6.4349  -10.7915    0.0000 C   0  0  0  0  0  0  0  0  0  0  0  0
    9.9914   -7.0654    0.0000 C   0  0  0  0  0  0  0  0  0  0  0  0
    7.1497  -11.2044    0.0000 C   0  0  0  0  0  0  0  0  0  0  0  0
    6.4360   -9.9641    0.0000 C   0  0  0  0  0  0  0  0  0  0  0  0
    9.2919  -10.7778    0.0000 C   0  0  0  0  0  0  0  0  0  0  0  0
   10.7063   -7.4755    0.0000 C   0  0  0  0  0  0  0  0  0  0  0  0
   10.7209  -10.7722    0.0000 C   0  0  0  0  0  0  0  0  0  0  0  0
    9.9994   -9.5370    0.0000 C   0  0  0  0  0  0  0  0  0  0  0  0
   11.4204   -7.0607    0.0000 C   0  0  0  0  0  0  0  0  0  0  0  0
   10.7152   -9.9430    0.0000 C   0  0  0  0  0  0  0  0  0  0  0  0
   10.6924   -5.0000    0.0000 C   0  0  0  0  0  0  0  0  0  0  0  0
   11.4032   -4.5813    0.0000 F   0  0  0  0  0  0  0  0  0  0  0  0
    9.9743   -4.5938    0.0000 F   0  0  0  0  0  0  0  0  0  0  0  0
   11.4911   -5.2066    0.0000 F   0  0  0  0  0  0  0  0  0  0  0  0
  4 31  1  0  0  0  0
 31 32  1  0  0  0  0
 31 33  1  0  0  0  0
 31 34  1  0  0  0  0
 21 23  1  0  0  0  0
 14 20  2  0  0  0  0
 20 24  1  0  0  0  0
 24 21  2  0  0  0  0
 21  8  1  0  0  0  0
 16 18  1  0  0  0  0
 17 18  1  0  0  0  0
  3 11  1  0  0  0  0
 18  6  1  0  0  0  0
 12 17  1  0  0  0  0
  6  1  1  0  0  0  0
 16 11  1  0  0  0  0
  8  5  3  0  0  0  0
 14  7  1  0  0  0  0
  1  2  1  0  0  0  0
 10 25  2  0  0  0  0
  1  9  2  0  0  0  0
 23 19  2  0  0  0  0
  2 22  2  0  0  0  0
 25 13  1  0  0  0  0
 22 26  1  0  0  0  0
  7 10  1  0  0  0  0
 26 29  2  0  0  0  0
 13 27  2  0  0  0  0
 29 15  1  0  0  0  0
 27 30  1  0  0  0  0
 15  4  2  0  0  0  0
  4  2  1  0  0  0  0
  7  3  1  0  0  0  0
 30 28  2  0  0  0  0
 28 10  1  0  0  0  0
  3 12  1  0  0  0  0
 19 14  1  0  0  0  0
M  END
> <Molecule Name>
DNDI1490400

> <CDD Number>
CDD-1535704

> <IC50_uM>
0.00424264068711929 ร/รท 1.08685171622948 (n=2)

$$$$

SketchEl molfile

 32 35  0  0  0  0  0  0  0  0999 V2000
    9.9952   -6.2415    0.0000 C   0  0  0  0  0  0  0  0  0  0  0  0
    9.2787   -5.8332    0.0000 C   0  0  0  0  0  0  0  0  0  0  0  0
    8.5746   -8.7204    0.0000 N   0  0  0  0  0  0  0  0  0  0  0  0
   10.6993   -5.8249    0.0000 C   0  0  0  0  0  0  0  0  0  0  0  0
    8.5662   -6.2457    0.0000 N   0  0  0  0  0  0  0  0  0  0  0  0
    5.0000  -11.6117    0.0000 N   0  0  0  0  0  0  0  0  0  0  0  0
    8.5787   -9.5453    0.0000 C   0  0  0  0  0  0  0  0  0  0  0  0
    9.9911   -7.0664    0.0000 C   0  0  0  0  0  0  0  0  0  0  0  0
   11.4159   -6.2332    0.0000 C   0  0  0  0  0  0  0  0  0  0  0  0
    5.7207  -11.2034    0.0000 C   0  0  0  0  0  0  0  0  0  0  0  0
    9.2953   -9.9536    0.0000 C   0  0  0  0  0  0  0  0  0  0  0  0
    9.2745   -5.0083    0.0000 O   0  0  0  0  0  0  0  0  0  0  0  0
    7.8663   -9.9619    0.0000 C   0  0  0  0  0  0  0  0  0  0  0  0
    9.2870   -8.3079    0.0000 C   0  0  0  0  0  0  0  0  0  0  0  0
    7.8580   -8.3163    0.0000 C   0  0  0  0  0  0  0  0  0  0  0  0
   10.0077  -11.1868    0.0000 N   0  0  0  0  0  0  0  0  0  0  0  0
    8.5704   -7.0747    0.0000 C   0  0  0  0  0  0  0  0  0  0  0  0
    7.8580   -7.4872    0.0000 C   0  0  0  0  0  0  0  0  0  0  0  0
    9.2870   -7.4872    0.0000 C   0  0  0  0  0  0  0  0  0  0  0  0
   11.4201   -7.0622    0.0000 C   0  0  0  0  0  0  0  0  0  0  0  0
    7.8663  -10.7910    0.0000 C   0  0  0  0  0  0  0  0  0  0  0  0
    7.1497   -9.5494    0.0000 C   0  0  0  0  0  0  0  0  0  0  0  0
    6.4373  -10.7910    0.0000 C   0  0  0  0  0  0  0  0  0  0  0  0
   10.6951   -5.0000    0.0000 F   0  0  0  0  0  0  0  0  0  0  0  0
   10.7076   -7.4747    0.0000 C   0  0  0  0  0  0  0  0  0  0  0  0
    6.4373   -9.9619    0.0000 C   0  0  0  0  0  0  0  0  0  0  0  0
    7.1497  -11.2034    0.0000 C   0  0  0  0  0  0  0  0  0  0  0  0
   12.1366   -7.4705    0.0000 F   0  0  0  0  0  0  0  0  0  0  0  0
    9.2953  -10.7785    0.0000 C   0  0  0  0  0  0  0  0  0  0  0  0
    9.9994   -9.5370    0.0000 C   0  0  0  0  0  0  0  0  0  0  0  0
   10.7243  -10.7701    0.0000 C   0  0  0  0  0  0  0  0  0  0  0  0
   10.7160   -9.9411    0.0000 C   0  0  0  0  0  0  0  0  0  0  0  0
  2  1  1  0  0  0  0
  3 14  1  0  0  0  0
  4  1  1  0  0  0  0
  5  2  1  0  0  0  0
  6 10  3  0  0  0  0
  7  3  1  0  0  0  0
  8  1  2  0  0  0  0
  9  4  2  0  0  0  0
 10 23  1  0  0  0  0
 11  7  1  0  0  0  0
 12  2  2  0  0  0  0
 13  7  1  0  0  0  0
 14 19  1  0  0  0  0
 15 18  1  0  0  0  0
 16 29  1  0  0  0  0
 17  5  1  0  0  0  0
 18 17  1  0  0  0  0
 19 17  1  0  0  0  0
 20  9  1  0  0  0  0
 21 13  1  0  0  0  0
 22 13  2  0  0  0  0
 23 26  2  0  0  0  0
 24  4  1  0  0  0  0
 25  8  1  0  0  0  0
 26 22  1  0  0  0  0
 27 21  2  0  0  0  0
 28 20  1  0  0  0  0
 29 11  2  0  0  0  0
 30 11  1  0  0  0  0
 31 32  1  0  0  0  0
 32 30  2  0  0  0  0
 20 25  2  0  0  0  0
 15  3  1  0  0  0  0
 27 23  1  0  0  0  0
 31 16  2  0  0  0  0
M  END
> <Molecule Name>
DNDI1490401

> <CDD Number>
CDD-1535705

> <IC50_uM>
0.01 (n=1)

$$$$

SketchEl molfile

 27 30  0  0  0  0  0  0  0  0999 V2000
    7.9050   -6.4504    0.0000 N   0  0  0  0  0  0  0  0  0  0  0  0
    8.5718   -6.9339    0.0000 C   0  0  0  0  0  0  0  0  0  0  0  0
    8.5718   -7.7591    0.0000 N   0  0  0  0  0  0  0  0  0  0  0  0
    9.2387   -6.4504    0.0000 O   0  0  0  0  0  0  0  0  0  0  0  0
    8.9844   -5.6668    0.0000 N   0  0  0  0  0  0  0  0  0  0  0  0
    8.1592   -5.6668    0.0000 C   0  0  0  0  0  0  0  0  0  0  0  0
    8.5718   -9.4054    0.0000 N   0  0  0  0  0  0  0  0  0  0  0  0
    5.0000  -12.2937    0.0000 N   0  0  0  0  0  0  0  0  0  0  0  0
    8.5760  -10.2306    0.0000 C   0  0  0  0  0  0  0  0  0  0  0  0
    5.7169  -11.8894    0.0000 C   0  0  0  0  0  0  0  0  0  0  0  0
    9.2929  -10.6391    0.0000 C   0  0  0  0  0  0  0  0  0  0  0  0
    7.8550   -8.1717    0.0000 C   0  0  0  0  0  0  0  0  0  0  0  0
    9.2845   -8.1717    0.0000 C   0  0  0  0  0  0  0  0  0  0  0  0
    7.8633  -10.6474    0.0000 C   0  0  0  0  0  0  0  0  0  0  0  0
    7.8550   -9.0011    0.0000 C   0  0  0  0  0  0  0  0  0  0  0  0
    9.2845   -8.9928    0.0000 C   0  0  0  0  0  0  0  0  0  0  0  0
   10.0056  -11.8727    0.0000 N   0  0  0  0  0  0  0  0  0  0  0  0
    7.8633  -11.4768    0.0000 C   0  0  0  0  0  0  0  0  0  0  0  0
    7.1464  -10.2348    0.0000 C   0  0  0  0  0  0  0  0  0  0  0  0
    6.4337  -11.4768    0.0000 C   0  0  0  0  0  0  0  0  0  0  0  0
    7.1464  -11.8894    0.0000 C   0  0  0  0  0  0  0  0  0  0  0  0
    6.4337  -10.6516    0.0000 C   0  0  0  0  0  0  0  0  0  0  0  0
    9.2929  -11.4643    0.0000 C   0  0  0  0  0  0  0  0  0  0  0  0
    7.6716   -5.0000    0.0000 C   0  0  0  0  0  0  0  0  0  0  0  0
    9.9972  -10.2223    0.0000 C   0  0  0  0  0  0  0  0  0  0  0  0
   10.7224  -11.4560    0.0000 C   0  0  0  0  0  0  0  0  0  0  0  0
   10.7141  -10.6266    0.0000 C   0  0  0  0  0  0  0  0  0  0  0  0
  2  1  2  0  0  0  0
  3  2  1  0  0  0  0
  4  2  1  0  0  0  0
  5  6  2  0  0  0  0
  6  1  1  0  0  0  0
  7 15  1  0  0  0  0
  8 10  3  0  0  0  0
  9  7  1  0  0  0  0
 10 20  1  0  0  0  0
 11  9  1  0  0  0  0
 12  3  1  0  0  0  0
 13  3  1  0  0  0  0
 14  9  1  0  0  0  0
 15 12  1  0  0  0  0
 16 13  1  0  0  0  0
 17 23  1  0  0  0  0
 18 14  1  0  0  0  0
 19 14  2  0  0  0  0
 20 22  2  0  0  0  0
 21 18  2  0  0  0  0
 22 19  1  0  0  0  0
 23 11  2  0  0  0  0
 24  6  1  0  0  0  0
 25 11  1  0  0  0  0
 26 17  2  0  0  0  0
 27 25  2  0  0  0  0
  5  4  1  0  0  0  0
 16  7  1  0  0  0  0
 27 26  1  0  0  0  0
 21 20  1  0  0  0  0
M  END
> <Molecule Name>
DNDI1490402

> <CDD Number>
CDD-1535706

> <IC50_uM>
0.064 (n=1)

$$$$

SketchEl molfile

 31 33  0  0  0  0  0  0  0  0999 V2000
    7.8585   -8.3251    0.0000 C   0  0  0  0  0  0  0  0  0  0  0  0
    7.8543   -7.5001    0.0000 C   0  0  0  0  0  0  0  0  0  0  0  0
    9.2793   -5.8500    0.0000 C   0  0  0  0  0  0  0  0  0  0  0  0
    8.5710   -7.0875    0.0000 C   0  0  0  0  0  0  0  0  0  0  0  0
    8.5668   -6.2667    0.0000 C   0  0  0  0  0  0  0  0  0  0  0  0
    8.5751   -8.7334    0.0000 C   0  0  0  0  0  0  0  0  0  0  0  0
    7.1459   -8.7418    0.0000 C   0  0  0  0  0  0  0  0  0  0  0  0
    9.2752   -5.0250    0.0000 O   0  0  0  0  0  0  0  0  0  0  0  0
    9.2877   -9.9668    0.0000 N   0  0  0  0  0  0  0  0  0  0  0  0
    9.9960   -6.2625    0.0000 N   0  0  0  0  0  0  0  0  0  0  0  0
    6.4292   -8.3293    0.0000 C   0  0  0  0  0  0  0  0  0  0  0  0
    7.1459   -9.5710    0.0000 C   0  0  0  0  0  0  0  0  0  0  0  0
    7.8543   -9.1501    0.0000 O   0  0  0  0  0  0  0  0  0  0  0  0
    5.7167   -9.5710    0.0000 C   0  0  0  0  0  0  0  0  0  0  0  0
    6.4292   -9.9835    0.0000 C   0  0  0  0  0  0  0  0  0  0  0  0
    5.7167   -8.7459    0.0000 C   0  0  0  0  0  0  0  0  0  0  0  0
    8.5751   -9.5585    0.0000 C   0  0  0  0  0  0  0  0  0  0  0  0
    5.0000   -9.9835    0.0000 Cl  0  0  0  0  0  0  0  0  0  0  0  0
    7.1418   -7.0959    0.0000 C   0  0  0  0  0  0  0  0  0  0  0  0
   11.4253   -6.2500    0.0000 C   0  0  0  0  0  0  0  0  0  0  0  0
    7.8501   -5.8542    0.0000 C   0  0  0  0  0  0  0  0  0  0  0  0
    7.1334   -6.2750    0.0000 C   0  0  0  0  0  0  0  0  0  0  0  0
   12.8545   -6.2417    0.0000 O   0  0  0  0  0  0  0  0  0  0  0  0
    9.2793   -8.3168    0.0000 C   0  0  0  0  0  0  0  0  0  0  0  0
   10.7086   -5.8458    0.0000 C   0  0  0  0  0  0  0  0  0  0  0  0
   10.0044   -9.5501    0.0000 C   0  0  0  0  0  0  0  0  0  0  0  0
   12.1336   -5.8333    0.0000 C   0  0  0  0  0  0  0  0  0  0  0  0
   13.5670   -5.8250    0.0000 C   0  0  0  0  0  0  0  0  0  0  0  0
    9.9960   -8.7209    0.0000 C   0  0  0  0  0  0  0  0  0  0  0  0
   14.2837   -6.2292    0.0000 C   0  0  0  0  0  0  0  0  0  0  0  0
   13.5587   -5.0000    0.0000 C   0  0  0  0  0  0  0  0  0  0  0  0
  2  1  1  0  0  0  0
  3  5  1  0  0  0  0
  4  2  2  0  0  0  0
  5  4  1  0  0  0  0
  6  1  1  0  0  0  0
  7  1  1  0  0  0  0
  8  3  2  0  0  0  0
  9 17  1  0  0  0  0
 10  3  1  0  0  0  0
 11  7  2  0  0  0  0
 12  7  1  0  0  0  0
 13  1  1  0  0  0  0
 14 16  2  0  0  0  0
 15 12  2  0  0  0  0
 16 11  1  0  0  0  0
 17  6  2  0  0  0  0
 18 14  1  0  0  0  0
 19  2  1  0  0  0  0
 20 25  1  0  0  0  0
 21 22  1  0  0  0  0
 22 19  2  0  0  0  0
 23 27  1  0  0  0  0
 24  6  1  0  0  0  0
 25 10  1  0  0  0  0
 26 29  1  0  0  0  0
 27 20  1  0  0  0  0
 28 23  1  0  0  0  0
 29 24  2  0  0  0  0
 30 28  1  0  0  0  0
 31 28  1  0  0  0  0
 15 14  1  0  0  0  0
 21  5  2  0  0  0  0
 26  9  2  0  0  0  0
M  END
> <Molecule Name>
DNDI1492865

> <CDD Number>
CDD-1535707

> <IC50_uM>
0.0975 (n=1)

$$$$

SketchEl molfile

 32 35  0  0  0  0  0  0  0  0999 V2000
    5.7162   -9.1320    0.0000 C   0  0  0  0  0  0  0  0  0  0  0  0
    5.7150   -9.9596    0.0000 C   0  0  0  0  0  0  0  0  0  0  0  0
    6.4299  -10.3726    0.0000 C   0  0  0  0  0  0  0  0  0  0  0  0
    7.1466   -9.9591    0.0000 C   0  0  0  0  0  0  0  0  0  0  0  0
    7.1437   -9.1284    0.0000 C   0  0  0  0  0  0  0  0  0  0  0  0
    6.4281   -8.7192    0.0000 C   0  0  0  0  0  0  0  0  0  0  0  0
    7.8567   -8.7131    0.0000 C   0  0  0  0  0  0  0  0  0  0  0  0
    8.5729   -9.1230    0.0000 C   0  0  0  0  0  0  0  0  0  0  0  0
    7.8536   -7.8879    0.0000 N   0  0  0  0  0  0  0  0  0  0  0  0
    8.5727   -9.9459    0.0000 C   0  0  0  0  0  0  0  0  0  0  0  0
    9.2880  -10.3557    0.0000 N   0  0  0  0  0  0  0  0  0  0  0  0
   10.0021   -9.9403    0.0000 C   0  0  0  0  0  0  0  0  0  0  0  0
    9.9963   -9.1109    0.0000 C   0  0  0  0  0  0  0  0  0  0  0  0
    9.2803   -8.7048    0.0000 C   0  0  0  0  0  0  0  0  0  0  0  0
    8.5667   -7.4727    0.0000 C   0  0  0  0  0  0  0  0  0  0  0  0
    9.2779   -7.8854    0.0000 C   0  0  0  0  0  0  0  0  0  0  0  0
    9.9889   -7.4737    0.0000 C   0  0  0  0  0  0  0  0  0  0  0  0
    9.9901   -6.6482    0.0000 N   0  0  0  0  0  0  0  0  0  0  0  0
    9.2740   -6.2361    0.0000 C   0  0  0  0  0  0  0  0  0  0  0  0
    8.5569   -6.6495    0.0000 C   0  0  0  0  0  0  0  0  0  0  0  0
   10.7047   -6.2356    0.0000 C   0  0  0  0  0  0  0  0  0  0  0  0
   11.4140   -6.6514    0.0000 C   0  0  0  0  0  0  0  0  0  0  0  0
   12.1280   -6.2395    0.0000 C   0  0  0  0  0  0  0  0  0  0  0  0
   12.1285   -5.4135    0.0000 C   0  0  0  0  0  0  0  0  0  0  0  0
   11.4089   -5.0010    0.0000 C   0  0  0  0  0  0  0  0  0  0  0  0
   10.6977   -5.4153    0.0000 C   0  0  0  0  0  0  0  0  0  0  0  0
    5.0000  -10.3716    0.0000 Cl  0  0  0  0  0  0  0  0  0  0  0  0
    6.4257   -7.8940    0.0000 F   0  0  0  0  0  0  0  0  0  0  0  0
   12.8426   -4.9999    0.0000 C   0  0  0  0  0  0  0  0  0  0  0  0
   13.5577   -5.4116    0.0000 F   0  0  0  0  0  0  0  0  0  0  0  0
   12.8415   -4.1748    0.0000 F   0  0  0  0  0  0  0  0  0  0  0  0
   13.0572   -5.7967    0.0000 F   0  0  0  0  0  0  0  0  0  0  0  0
 24 29  1  0  0  0  0
 29 30  1  0  0  0  0
 29 31  1  0  0  0  0
 29 32  1  0  0  0  0
 15 16  1  0  0  0  0
  3  4  2  0  0  0  0
  7  8  1  0  0  0  0
  7  9  1  0  0  0  0
  4  5  1  0  0  0  0
 15 20  1  0  0  0  0
 16 17  1  0  0  0  0
 17 18  1  0  0  0  0
 18 19  1  0  0  0  0
 19 20  1  0  0  0  0
  8 10  2  0  0  0  0
 18 21  1  0  0  0  0
  2  3  1  0  0  0  0
 21 22  2  0  0  0  0
 10 11  1  0  0  0  0
 22 23  1  0  0  0  0
  5  6  2  0  0  0  0
 23 24  2  0  0  0  0
 11 12  2  0  0  0  0
 24 25  1  0  0  0  0
  6  1  1  0  0  0  0
 25 26  2  0  0  0  0
 26 21  1  0  0  0  0
 12 13  1  0  0  0  0
  2 27  1  0  0  0  0
  1  2  2  0  0  0  0
  6 28  1  0  0  0  0
 13 14  2  0  0  0  0
 14  8  1  0  0  0  0
  5  7  1  0  0  0  0
  9 15  1  0  0  0  0
M  END
> <Molecule Name>
DNDI1492866

> <CDD Number>
CDD-1535708

> <IC50_uM>
0.0103141916416833 ร/รท 1.07779234978585 (n=3)

$$$$

SketchEl molfile

 29 32  0  0  0  0  0  0  0  0999 V2000
    7.1463   -9.1301    0.0000 C   0  0  0  0  0  0  0  0  0  0  0  0
    7.8590   -8.7134    0.0000 C   0  0  0  0  0  0  0  0  0  0  0  0
    9.9928   -6.6462    0.0000 N   0  0  0  0  0  0  0  0  0  0  0  0
    6.4295   -8.7176    0.0000 C   0  0  0  0  0  0  0  0  0  0  0  0
    7.8548   -7.8882    0.0000 N   0  0  0  0  0  0  0  0  0  0  0  0
   10.7055   -6.2336    0.0000 C   0  0  0  0  0  0  0  0  0  0  0  0
    7.1463   -9.9595    0.0000 C   0  0  0  0  0  0  0  0  0  0  0  0
    5.7168   -9.1301    0.0000 C   0  0  0  0  0  0  0  0  0  0  0  0
    8.5758   -9.1218    0.0000 C   0  0  0  0  0  0  0  0  0  0  0  0
    9.2760   -6.2378    0.0000 C   0  0  0  0  0  0  0  0  0  0  0  0
    9.9886   -7.4756    0.0000 C   0  0  0  0  0  0  0  0  0  0  0  0
   11.4140   -6.6504    0.0000 C   0  0  0  0  0  0  0  0  0  0  0  0
    9.2885  -10.3554    0.0000 N   0  0  0  0  0  0  0  0  0  0  0  0
    9.2801   -7.8840    0.0000 C   0  0  0  0  0  0  0  0  0  0  0  0
    8.5592   -6.6504    0.0000 C   0  0  0  0  0  0  0  0  0  0  0  0
    8.5675   -7.4714    0.0000 C   0  0  0  0  0  0  0  0  0  0  0  0
    5.7168   -9.9595    0.0000 C   0  0  0  0  0  0  0  0  0  0  0  0
    6.4253   -7.8924    0.0000 F   0  0  0  0  0  0  0  0  0  0  0  0
    6.4295  -10.3721    0.0000 C   0  0  0  0  0  0  0  0  0  0  0  0
   11.4140   -7.4756    0.0000 F   0  0  0  0  0  0  0  0  0  0  0  0
    5.0000  -10.3721    0.0000 Cl  0  0  0  0  0  0  0  0  0  0  0  0
    8.5758   -9.9470    0.0000 C   0  0  0  0  0  0  0  0  0  0  0  0
   10.6971   -5.4168    0.0000 C   0  0  0  0  0  0  0  0  0  0  0  0
    9.2801   -8.7051    0.0000 C   0  0  0  0  0  0  0  0  0  0  0  0
   10.0053   -9.9387    0.0000 C   0  0  0  0  0  0  0  0  0  0  0  0
   12.1308   -6.2378    0.0000 C   0  0  0  0  0  0  0  0  0  0  0  0
    9.9970   -9.1093    0.0000 C   0  0  0  0  0  0  0  0  0  0  0  0
   11.4098   -5.0000    0.0000 C   0  0  0  0  0  0  0  0  0  0  0  0
   12.1308   -5.4126    0.0000 C   0  0  0  0  0  0  0  0  0  0  0  0
  2  1  1  0  0  0  0
  3 10  1  0  0  0  0
  4  1  2  0  0  0  0
  5  2  1  0  0  0  0
  6  3  1  0  0  0  0
  7  1  1  0  0  0  0
  8  4  1  0  0  0  0
  9  2  1  0  0  0  0
 10 15  1  0  0  0  0
 11 14  1  0  0  0  0
 12  6  2  0  0  0  0
 13 22  1  0  0  0  0
 14 16  1  0  0  0  0
 15 16  1  0  0  0  0
 16  5  1  0  0  0  0
 17  8  2  0  0  0  0
 18  4  1  0  0  0  0
 19  7  2  0  0  0  0
 20 12  1  0  0  0  0
 21 17  1  0  0  0  0
 22  9  2  0  0  0  0
 23  6  1  0  0  0  0
 24  9  1  0  0  0  0
 25 13  2  0  0  0  0
 26 12  1  0  0  0  0
 27 24  2  0  0  0  0
 28 23  2  0  0  0  0
 29 28  1  0  0  0  0
 19 17  1  0  0  0  0
 27 25  1  0  0  0  0
  3 11  1  0  0  0  0
 29 26  2  0  0  0  0
M  END
> <Molecule Name>
DNDI1492867

> <CDD Number>
CDD-1535709

> <IC50_uM>
0.0045 (n=1)

$$$$

SketchEl molfile

 28 31  0  0  0  0  0  0  0  0999 V2000
   10.7044   -5.9958    0.0000 C   0  0  0  0  0  0  0  0  0  0  0  0
   11.4586   -6.3292    0.0000 N   0  0  0  0  0  0  0  0  0  0  0  0
   10.7919   -5.1708    0.0000 N   0  0  0  0  0  0  0  0  0  0  0  0
    7.1459   -8.8918    0.0000 C   0  0  0  0  0  0  0  0  0  0  0  0
    9.9918   -6.4084    0.0000 N   0  0  0  0  0  0  0  0  0  0  0  0
    7.8584   -8.4751    0.0000 C   0  0  0  0  0  0  0  0  0  0  0  0
   12.0086   -5.7167    0.0000 C   0  0  0  0  0  0  0  0  0  0  0  0
    6.4292   -8.4793    0.0000 C   0  0  0  0  0  0  0  0  0  0  0  0
   11.5961   -5.0000    0.0000 O   0  0  0  0  0  0  0  0  0  0  0  0
    7.8543   -7.6501    0.0000 N   0  0  0  0  0  0  0  0  0  0  0  0
    7.1459   -9.7210    0.0000 C   0  0  0  0  0  0  0  0  0  0  0  0
    5.7167   -8.8918    0.0000 C   0  0  0  0  0  0  0  0  0  0  0  0
    8.5751   -8.8835    0.0000 C   0  0  0  0  0  0  0  0  0  0  0  0
    9.2752   -6.0000    0.0000 C   0  0  0  0  0  0  0  0  0  0  0  0
    9.9877   -7.2376    0.0000 C   0  0  0  0  0  0  0  0  0  0  0  0
    9.2877  -10.1168    0.0000 N   0  0  0  0  0  0  0  0  0  0  0  0
    8.5585   -6.4125    0.0000 C   0  0  0  0  0  0  0  0  0  0  0  0
    9.2793   -7.6459    0.0000 C   0  0  0  0  0  0  0  0  0  0  0  0
    8.5668   -7.2334    0.0000 C   0  0  0  0  0  0  0  0  0  0  0  0
    5.7167   -9.7210    0.0000 C   0  0  0  0  0  0  0  0  0  0  0  0
    6.4251   -7.6542    0.0000 F   0  0  0  0  0  0  0  0  0  0  0  0
    6.4292  -10.1335    0.0000 C   0  0  0  0  0  0  0  0  0  0  0  0
    5.0000  -10.1335    0.0000 Cl  0  0  0  0  0  0  0  0  0  0  0  0
    8.5751   -9.7085    0.0000 C   0  0  0  0  0  0  0  0  0  0  0  0
   12.8295   -5.8000    0.0000 C   0  0  0  0  0  0  0  0  0  0  0  0
    9.2793   -8.4668    0.0000 C   0  0  0  0  0  0  0  0  0  0  0  0
   10.0043   -9.7002    0.0000 C   0  0  0  0  0  0  0  0  0  0  0  0
    9.9960   -8.8710    0.0000 C   0  0  0  0  0  0  0  0  0  0  0  0
  2  1  1  0  0  0  0
  3  1  2  0  0  0  0
  4  6  1  0  0  0  0
  5  1  1  0  0  0  0
  6 10  1  0  0  0  0
  7  2  2  0  0  0  0
  8  4  2  0  0  0  0
  9  3  1  0  0  0  0
 10 19  1  0  0  0  0
 11  4  1  0  0  0  0
 12  8  1  0  0  0  0
 13  6  1  0  0  0  0
 14  5  1  0  0  0  0
 15  5  1  0  0  0  0
 16 24  1  0  0  0  0
 17 14  1  0  0  0  0
 18 15  1  0  0  0  0
 19 17  1  0  0  0  0
 20 12  2  0  0  0  0
 21  8  1  0  0  0  0
 22 11  2  0  0  0  0
 23 20  1  0  0  0  0
 24 13  2  0  0  0  0
 25  7  1  0  0  0  0
 26 13  1  0  0  0  0
 27 16  2  0  0  0  0
 28 26  2  0  0  0  0
  9  7  1  0  0  0  0
 18 19  1  0  0  0  0
 28 27  1  0  0  0  0
 22 20  1  0  0  0  0
M  END
> <Molecule Name>
DNDI1492868

> <CDD Number>
CDD-1535710

> <IC50_uM>
0.064 (n=1)

$$$$

SketchEl molfile

 30 33  0  0  0  0  0  0  0  0999 V2000
    9.9992   -6.2373    0.0000 C   0  0  0  0  0  0  0  0  0  0  0  0
   10.7533   -5.8999    0.0000 N   0  0  0  0  0  0  0  0  0  0  0  0
    9.2827   -5.8249    0.0000 C   0  0  0  0  0  0  0  0  0  0  0  0
    8.5703   -8.7078    0.0000 N   0  0  0  0  0  0  0  0  0  0  0  0
   10.0867   -7.0580    0.0000 C   0  0  0  0  0  0  0  0  0  0  0  0
   11.3073   -6.5123    0.0000 C   0  0  0  0  0  0  0  0  0  0  0  0
   10.8949   -7.2288    0.0000 S   0  0  0  0  0  0  0  0  0  0  0  0
    8.5703   -6.2373    0.0000 N   0  0  0  0  0  0  0  0  0  0  0  0
    5.0000  -11.5948    0.0000 N   0  0  0  0  0  0  0  0  0  0  0  0
    8.5744   -9.5326    0.0000 C   0  0  0  0  0  0  0  0  0  0  0  0
    5.7166  -11.1907    0.0000 C   0  0  0  0  0  0  0  0  0  0  0  0
    9.2910   -9.9409    0.0000 C   0  0  0  0  0  0  0  0  0  0  0  0
    7.8621   -9.9492    0.0000 C   0  0  0  0  0  0  0  0  0  0  0  0
    7.8537   -8.3037    0.0000 C   0  0  0  0  0  0  0  0  0  0  0  0
    9.2827   -8.2953    0.0000 C   0  0  0  0  0  0  0  0  0  0  0  0
    9.2827   -5.0000    0.0000 O   0  0  0  0  0  0  0  0  0  0  0  0
   10.0034  -11.1740    0.0000 N   0  0  0  0  0  0  0  0  0  0  0  0
    8.5703   -7.0622    0.0000 C   0  0  0  0  0  0  0  0  0  0  0  0
    7.8537   -7.4746    0.0000 C   0  0  0  0  0  0  0  0  0  0  0  0
    9.2827   -7.4746    0.0000 C   0  0  0  0  0  0  0  0  0  0  0  0
    7.1455   -9.5368    0.0000 C   0  0  0  0  0  0  0  0  0  0  0  0
    7.8621  -10.7783    0.0000 C   0  0  0  0  0  0  0  0  0  0  0  0
    6.4331  -10.7783    0.0000 C   0  0  0  0  0  0  0  0  0  0  0  0
    6.4331   -9.9534    0.0000 C   0  0  0  0  0  0  0  0  0  0  0  0
    7.1455  -11.1907    0.0000 C   0  0  0  0  0  0  0  0  0  0  0  0
    9.2910  -10.7658    0.0000 C   0  0  0  0  0  0  0  0  0  0  0  0
   12.1280   -6.4289    0.0000 C   0  0  0  0  0  0  0  0  0  0  0  0
    9.9950   -9.5243    0.0000 C   0  0  0  0  0  0  0  0  0  0  0  0
   10.7199  -10.7574    0.0000 C   0  0  0  0  0  0  0  0  0  0  0  0
   10.7116   -9.9284    0.0000 C   0  0  0  0  0  0  0  0  0  0  0  0
  2  1  1  0  0  0  0
  3  1  1  0  0  0  0
  4 14  1  0  0  0  0
  5  1  2  0  0  0  0
  6  2  2  0  0  0  0
  7  5  1  0  0  0  0
  8  3  1  0  0  0  0
  9 11  3  0  0  0  0
 10  4  1  0  0  0  0
 11 23  1  0  0  0  0
 12 10  1  0  0  0  0
 13 10  1  0  0  0  0
 14 19  1  0  0  0  0
 15 20  1  0  0  0  0
 16  3  2  0  0  0  0
 17 26  1  0  0  0  0
 18  8  1  0  0  0  0
 19 18  1  0  0  0  0
 20 18  1  0  0  0  0
 21 13  2  0  0  0  0
 22 13  1  0  0  0  0
 23 24  2  0  0  0  0
 24 21  1  0  0  0  0
 25 22  2  0  0  0  0
 26 12  2  0  0  0  0
 27  6  1  0  0  0  0
 28 12  1  0  0  0  0
 29 30  1  0  0  0  0
 30 28  2  0  0  0  0
  6  7  1  0  0  0  0
 15  4  1  0  0  0  0
 25 23  1  0  0  0  0
 29 17  2  0  0  0  0
M  END
> <Molecule Name>
DNDI1498547

> <CDD Number>
CDD-1535711

> <IC50_uM>
0.065 (n=1)

$$$$

SketchEl molfile

 30 33  0  0  0  0  0  0  0  0999 V2000
    9.9998   -6.2374    0.0000 C   0  0  0  0  0  0  0  0  0  0  0  0
    9.2831   -5.8250    0.0000 C   0  0  0  0  0  0  0  0  0  0  0  0
   10.7539   -5.8999    0.0000 C   0  0  0  0  0  0  0  0  0  0  0  0
    8.5707   -8.7081    0.0000 N   0  0  0  0  0  0  0  0  0  0  0  0
   11.3080   -6.5124    0.0000 N   0  0  0  0  0  0  0  0  0  0  0  0
   10.0872   -7.0582    0.0000 S   0  0  0  0  0  0  0  0  0  0  0  0
    8.5707   -6.2374    0.0000 N   0  0  0  0  0  0  0  0  0  0  0  0
   10.8955   -7.2290    0.0000 C   0  0  0  0  0  0  0  0  0  0  0  0
    5.0000  -11.5955    0.0000 N   0  0  0  0  0  0  0  0  0  0  0  0
    8.5748   -9.5331    0.0000 C   0  0  0  0  0  0  0  0  0  0  0  0
    5.7166  -11.1914    0.0000 C   0  0  0  0  0  0  0  0  0  0  0  0
    9.2915   -9.9414    0.0000 C   0  0  0  0  0  0  0  0  0  0  0  0
    9.2831   -5.0000    0.0000 O   0  0  0  0  0  0  0  0  0  0  0  0
    7.8624   -9.9497    0.0000 C   0  0  0  0  0  0  0  0  0  0  0  0
    9.2831   -8.2957    0.0000 C   0  0  0  0  0  0  0  0  0  0  0  0
    7.8540   -8.3040    0.0000 C   0  0  0  0  0  0  0  0  0  0  0  0
   10.0039  -11.1747    0.0000 N   0  0  0  0  0  0  0  0  0  0  0  0
    8.5707   -7.0624    0.0000 C   0  0  0  0  0  0  0  0  0  0  0  0
    7.8540   -7.4749    0.0000 C   0  0  0  0  0  0  0  0  0  0  0  0
    9.2831   -7.4749    0.0000 C   0  0  0  0  0  0  0  0  0  0  0  0
    7.1457   -9.5373    0.0000 C   0  0  0  0  0  0  0  0  0  0  0  0
    7.8624  -10.7789    0.0000 C   0  0  0  0  0  0  0  0  0  0  0  0
    6.4333  -10.7789    0.0000 C   0  0  0  0  0  0  0  0  0  0  0  0
    6.4333   -9.9539    0.0000 C   0  0  0  0  0  0  0  0  0  0  0  0
    7.1457  -11.1914    0.0000 C   0  0  0  0  0  0  0  0  0  0  0  0
    9.2915  -10.7664    0.0000 C   0  0  0  0  0  0  0  0  0  0  0  0
   10.9247   -5.0958    0.0000 C   0  0  0  0  0  0  0  0  0  0  0  0
    9.9956   -9.5248    0.0000 C   0  0  0  0  0  0  0  0  0  0  0  0
   10.7206  -10.7580    0.0000 C   0  0  0  0  0  0  0  0  0  0  0  0
   10.7122   -9.9289    0.0000 C   0  0  0  0  0  0  0  0  0  0  0  0
  2  1  1  0  0  0  0
  3  1  2  0  0  0  0
  4 16  1  0  0  0  0
  5  3  1  0  0  0  0
  6  1  1  0  0  0  0
  7  2  1  0  0  0  0
  8  6  1  0  0  0  0
  9 11  3  0  0  0  0
 10  4  1  0  0  0  0
 11 23  1  0  0  0  0
 12 10  1  0  0  0  0
 13  2  2  0  0  0  0
 14 10  1  0  0  0  0
 15 20  1  0  0  0  0
 16 19  1  0  0  0  0
 17 26  1  0  0  0  0
 18  7  1  0  0  0  0
 19 18  1  0  0  0  0
 20 18  1  0  0  0  0
 21 14  2  0  0  0  0
 22 14  1  0  0  0  0
 23 24  2  0  0  0  0
 24 21  1  0  0  0  0
 25 22  2  0  0  0  0
 26 12  2  0  0  0  0
 27  3  1  0  0  0  0
 28 12  1  0  0  0  0
 29 30  1  0  0  0  0
 30 28  2  0  0  0  0
  5  8  2  0  0  0  0
 15  4  1  0  0  0  0
 25 23  1  0  0  0  0
 29 17  2  0  0  0  0
M  END
> <Molecule Name>
DNDI1498548

> <CDD Number>
CDD-1535712

> <IC50_uM>
0.071 (n=1)

$$$$

SketchEl molfile

 31 34  0  0  0  0  0  0  0  0999 V2000
    9.9998   -6.2374    0.0000 C   0  0  0  0  0  0  0  0  0  0  0  0
   10.7540   -5.8999    0.0000 C   0  0  0  0  0  0  0  0  0  0  0  0
   11.3081   -6.5124    0.0000 N   0  0  0  0  0  0  0  0  0  0  0  0
    9.2832   -5.8249    0.0000 C   0  0  0  0  0  0  0  0  0  0  0  0
   10.0873   -7.0582    0.0000 S   0  0  0  0  0  0  0  0  0  0  0  0
   10.8956   -7.2291    0.0000 C   0  0  0  0  0  0  0  0  0  0  0  0
    8.5707   -8.7082    0.0000 N   0  0  0  0  0  0  0  0  0  0  0  0
    8.5707   -6.2374    0.0000 N   0  0  0  0  0  0  0  0  0  0  0  0
    5.0000  -11.5956    0.0000 N   0  0  0  0  0  0  0  0  0  0  0  0
    8.5749   -9.5332    0.0000 C   0  0  0  0  0  0  0  0  0  0  0  0
    5.7166  -11.1914    0.0000 C   0  0  0  0  0  0  0  0  0  0  0  0
    9.2915   -9.9415    0.0000 C   0  0  0  0  0  0  0  0  0  0  0  0
    9.2832   -5.0000    0.0000 O   0  0  0  0  0  0  0  0  0  0  0  0
    7.8624   -9.9498    0.0000 C   0  0  0  0  0  0  0  0  0  0  0  0
    9.2832   -8.2957    0.0000 C   0  0  0  0  0  0  0  0  0  0  0  0
    7.8541   -8.3040    0.0000 C   0  0  0  0  0  0  0  0  0  0  0  0
   10.0040  -11.1748    0.0000 N   0  0  0  0  0  0  0  0  0  0  0  0
    8.5707   -7.0624    0.0000 C   0  0  0  0  0  0  0  0  0  0  0  0
    7.8541   -7.4749    0.0000 C   0  0  0  0  0  0  0  0  0  0  0  0
    9.2832   -7.4749    0.0000 C   0  0  0  0  0  0  0  0  0  0  0  0
    7.1458   -9.5373    0.0000 C   0  0  0  0  0  0  0  0  0  0  0  0
    7.8624  -10.7790    0.0000 C   0  0  0  0  0  0  0  0  0  0  0  0
    6.4333  -10.7790    0.0000 C   0  0  0  0  0  0  0  0  0  0  0  0
    6.4333   -9.9540    0.0000 C   0  0  0  0  0  0  0  0  0  0  0  0
    7.1458  -11.1914    0.0000 C   0  0  0  0  0  0  0  0  0  0  0  0
   10.9248   -5.0958    0.0000 C   0  0  0  0  0  0  0  0  0  0  0  0
    9.2915  -10.7665    0.0000 C   0  0  0  0  0  0  0  0  0  0  0  0
   11.2290   -7.9832    0.0000 C   0  0  0  0  0  0  0  0  0  0  0  0
    9.9957   -9.5248    0.0000 C   0  0  0  0  0  0  0  0  0  0  0  0
   10.7207  -10.7581    0.0000 C   0  0  0  0  0  0  0  0  0  0  0  0
   10.7123   -9.9290    0.0000 C   0  0  0  0  0  0  0  0  0  0  0  0
  2  1  2  0  0  0  0
  3  2  1  0  0  0  0
  4  1  1  0  0  0  0
  5  1  1  0  0  0  0
  6  5  1  0  0  0  0
  7 16  1  0  0  0  0
  8  4  1  0  0  0  0
  9 11  3  0  0  0  0
 10  7  1  0  0  0  0
 11 23  1  0  0  0  0
 12 10  1  0  0  0  0
 13  4  2  0  0  0  0
 14 10  1  0  0  0  0
 15 20  1  0  0  0  0
 16 19  1  0  0  0  0
 17 27  1  0  0  0  0
 18  8  1  0  0  0  0
 19 18  1  0  0  0  0
 20 18  1  0  0  0  0
 21 14  2  0  0  0  0
 22 14  1  0  0  0  0
 23 24  2  0  0  0  0
 24 21  1  0  0  0  0
 25 22  2  0  0  0  0
 26  2  1  0  0  0  0
 27 12  2  0  0  0  0
 28  6  1  0  0  0  0
 29 12  1  0  0  0  0
 30 31  1  0  0  0  0
 31 29  2  0  0  0  0
  3  6  2  0  0  0  0
 15  7  1  0  0  0  0
 25 23  1  0  0  0  0
 30 17  2  0  0  0  0
M  END
> <Molecule Name>
DNDI1498549

> <CDD Number>
CDD-1535713

> <IC50_uM>
0.059 (n=1)

$$$$

SketchEl molfile

 29 32  0  0  0  0  0  0  0  0999 V2000
    9.9992   -6.2373    0.0000 C   0  0  0  0  0  0  0  0  0  0  0  0
    9.2826   -5.8249    0.0000 C   0  0  0  0  0  0  0  0  0  0  0  0
   10.7532   -5.8999    0.0000 N   0  0  0  0  0  0  0  0  0  0  0  0
    8.5703   -8.7078    0.0000 N   0  0  0  0  0  0  0  0  0  0  0  0
    8.5703   -6.2373    0.0000 N   0  0  0  0  0  0  0  0  0  0  0  0
    5.0000  -11.5948    0.0000 N   0  0  0  0  0  0  0  0  0  0  0  0
    8.5744   -9.5326    0.0000 C   0  0  0  0  0  0  0  0  0  0  0  0
   10.8949   -7.2288    0.0000 S   0  0  0  0  0  0  0  0  0  0  0  0
   11.3073   -6.5123    0.0000 C   0  0  0  0  0  0  0  0  0  0  0  0
   10.0867   -7.0580    0.0000 C   0  0  0  0  0  0  0  0  0  0  0  0
    5.7166  -11.1907    0.0000 C   0  0  0  0  0  0  0  0  0  0  0  0
    9.2910   -9.9409    0.0000 C   0  0  0  0  0  0  0  0  0  0  0  0
    7.8620   -9.9492    0.0000 C   0  0  0  0  0  0  0  0  0  0  0  0
    7.8537   -8.3037    0.0000 C   0  0  0  0  0  0  0  0  0  0  0  0
    9.2826   -8.2953    0.0000 C   0  0  0  0  0  0  0  0  0  0  0  0
    9.2826   -5.0000    0.0000 O   0  0  0  0  0  0  0  0  0  0  0  0
   10.0034  -11.1740    0.0000 N   0  0  0  0  0  0  0  0  0  0  0  0
    8.5703   -7.0622    0.0000 C   0  0  0  0  0  0  0  0  0  0  0  0
    7.8537   -7.4746    0.0000 C   0  0  0  0  0  0  0  0  0  0  0  0
    9.2826   -7.4746    0.0000 C   0  0  0  0  0  0  0  0  0  0  0  0
    7.1455   -9.5368    0.0000 C   0  0  0  0  0  0  0  0  0  0  0  0
    7.8620  -10.7783    0.0000 C   0  0  0  0  0  0  0  0  0  0  0  0
    6.4331  -10.7783    0.0000 C   0  0  0  0  0  0  0  0  0  0  0  0
    6.4331   -9.9534    0.0000 C   0  0  0  0  0  0  0  0  0  0  0  0
    7.1455  -11.1907    0.0000 C   0  0  0  0  0  0  0  0  0  0  0  0
    9.2910  -10.7658    0.0000 C   0  0  0  0  0  0  0  0  0  0  0  0
    9.9950   -9.5243    0.0000 C   0  0  0  0  0  0  0  0  0  0  0  0
   10.7199  -10.7574    0.0000 C   0  0  0  0  0  0  0  0  0  0  0  0
   10.7116   -9.9284    0.0000 C   0  0  0  0  0  0  0  0  0  0  0  0
  2  1  1  0  0  0  0
  3  1  1  0  0  0  0
  4 14  1  0  0  0  0
  5  2  1  0  0  0  0
  6 11  3  0  0  0  0
  7  4  1  0  0  0  0
  8 10  1  0  0  0  0
  9  3  2  0  0  0  0
 10  1  2  0  0  0  0
 11 23  1  0  0  0  0
 12  7  1  0  0  0  0
 13  7  1  0  0  0  0
 14 19  1  0  0  0  0
 15 20  1  0  0  0  0
 16  2  2  0  0  0  0
 17 26  1  0  0  0  0
 18  5  1  0  0  0  0
 19 18  1  0  0  0  0
 20 18  1  0  0  0  0
 21 13  2  0  0  0  0
 22 13  1  0  0  0  0
 23 24  2  0  0  0  0
 24 21  1  0  0  0  0
 25 22  2  0  0  0  0
 26 12  2  0  0  0  0
 27 12  1  0  0  0  0
 28 17  2  0  0  0  0
 29 27  2  0  0  0  0
  9  8  1  0  0  0  0
 15  4  1  0  0  0  0
 29 28  1  0  0  0  0
 25 23  1  0  0  0  0
M  END
> <Molecule Name>
DNDI1498550

> <CDD Number>
CDD-1535714

> <IC50_uM>
0.1735 (n=1)

$$$$

SketchEl molfile

 31 34  0  0  0  0  0  0  0  0999 V2000
    9.9998   -6.2374    0.0000 C   0  0  0  0  0  0  0  0  0  0  0  0
   10.7540   -5.8999    0.0000 N   0  0  0  0  0  0  0  0  0  0  0  0
   11.3081   -6.5124    0.0000 N   0  0  0  0  0  0  0  0  0  0  0  0
    9.2832   -5.8249    0.0000 C   0  0  0  0  0  0  0  0  0  0  0  0
   10.0873   -7.0582    0.0000 C   0  0  0  0  0  0  0  0  0  0  0  0
    8.5707   -8.7082    0.0000 N   0  0  0  0  0  0  0  0  0  0  0  0
   10.8956   -7.2291    0.0000 C   0  0  0  0  0  0  0  0  0  0  0  0
    8.5707   -6.2374    0.0000 N   0  0  0  0  0  0  0  0  0  0  0  0
    5.0000  -11.5956    0.0000 N   0  0  0  0  0  0  0  0  0  0  0  0
    8.5749   -9.5332    0.0000 C   0  0  0  0  0  0  0  0  0  0  0  0
    5.7166  -11.1914    0.0000 C   0  0  0  0  0  0  0  0  0  0  0  0
    9.2915   -9.9415    0.0000 C   0  0  0  0  0  0  0  0  0  0  0  0
    9.2832   -5.0000    0.0000 O   0  0  0  0  0  0  0  0  0  0  0  0
    7.8624   -9.9498    0.0000 C   0  0  0  0  0  0  0  0  0  0  0  0
    9.2832   -8.2957    0.0000 C   0  0  0  0  0  0  0  0  0  0  0  0
    7.8541   -8.3040    0.0000 C   0  0  0  0  0  0  0  0  0  0  0  0
   10.0040  -11.1748    0.0000 N   0  0  0  0  0  0  0  0  0  0  0  0
    8.5707   -7.0624    0.0000 C   0  0  0  0  0  0  0  0  0  0  0  0
    7.8541   -7.4749    0.0000 C   0  0  0  0  0  0  0  0  0  0  0  0
    9.2832   -7.4749    0.0000 C   0  0  0  0  0  0  0  0  0  0  0  0
    7.1458   -9.5373    0.0000 C   0  0  0  0  0  0  0  0  0  0  0  0
    7.8624  -10.7790    0.0000 C   0  0  0  0  0  0  0  0  0  0  0  0
    6.4333  -10.7790    0.0000 C   0  0  0  0  0  0  0  0  0  0  0  0
   10.9248   -5.0958    0.0000 C   0  0  0  0  0  0  0  0  0  0  0  0
    7.1458  -11.1914    0.0000 C   0  0  0  0  0  0  0  0  0  0  0  0
    6.4333   -9.9540    0.0000 C   0  0  0  0  0  0  0  0  0  0  0  0
    9.2915  -10.7665    0.0000 C   0  0  0  0  0  0  0  0  0  0  0  0
   11.2290   -7.9832    0.0000 C   0  0  0  0  0  0  0  0  0  0  0  0
    9.9957   -9.5248    0.0000 C   0  0  0  0  0  0  0  0  0  0  0  0
   10.7207  -10.7581    0.0000 C   0  0  0  0  0  0  0  0  0  0  0  0
   10.7123   -9.9290    0.0000 C   0  0  0  0  0  0  0  0  0  0  0  0
  2  1  1  0  0  0  0
  3  2  1  0  0  0  0
  4  1  1  0  0  0  0
  5  1  2  0  0  0  0
  6 16  1  0  0  0  0
  7  5  1  0  0  0  0
  8  4  1  0  0  0  0
  9 11  3  0  0  0  0
 10  6  1  0  0  0  0
 11 23  1  0  0  0  0
 12 10  1  0  0  0  0
 13  4  2  0  0  0  0
 14 10  1  0  0  0  0
 15 20  1  0  0  0  0
 16 19  1  0  0  0  0
 17 27  1  0  0  0  0
 18  8  1  0  0  0  0
 19 18  1  0  0  0  0
 20 18  1  0  0  0  0
 21 14  2  0  0  0  0
 22 14  1  0  0  0  0
 23 26  2  0  0  0  0
 24  2  1  0  0  0  0
 25 22  2  0  0  0  0
 26 21  1  0  0  0  0
 27 12  2  0  0  0  0
 28  7  1  0  0  0  0
 29 12  1  0  0  0  0
 30 31  1  0  0  0  0
 31 29  2  0  0  0  0
  3  7  2  0  0  0  0
 15  6  1  0  0  0  0
 25 23  1  0  0  0  0
 30 17  2  0  0  0  0
M  END
> <Molecule Name>
DNDI1498551

> <CDD Number>
CDD-1535715

> <IC50_uM>
0.0519326486903951 ร/รท 1.16913483861316 (n=2)

$$$$

SketchEl molfile

 30 33  0  0  0  0  0  0  0  0999 V2000
    9.9998   -6.2374    0.0000 C   0  0  0  0  0  0  0  0  0  0  0  0
    9.2831   -5.8250    0.0000 C   0  0  0  0  0  0  0  0  0  0  0  0
    8.5707   -8.7081    0.0000 N   0  0  0  0  0  0  0  0  0  0  0  0
   11.3080   -6.5124    0.0000 N   0  0  0  0  0  0  0  0  0  0  0  0
   10.7539   -5.8999    0.0000 C   0  0  0  0  0  0  0  0  0  0  0  0
    8.5707   -6.2374    0.0000 N   0  0  0  0  0  0  0  0  0  0  0  0
   10.8955   -7.2290    0.0000 O   0  0  0  0  0  0  0  0  0  0  0  0
    5.0000  -11.5955    0.0000 N   0  0  0  0  0  0  0  0  0  0  0  0
    8.5748   -9.5331    0.0000 C   0  0  0  0  0  0  0  0  0  0  0  0
   10.0872   -7.0582    0.0000 C   0  0  0  0  0  0  0  0  0  0  0  0
    5.7166  -11.1914    0.0000 C   0  0  0  0  0  0  0  0  0  0  0  0
    9.2915   -9.9414    0.0000 C   0  0  0  0  0  0  0  0  0  0  0  0
    9.2831   -5.0000    0.0000 O   0  0  0  0  0  0  0  0  0  0  0  0
    7.8624   -9.9497    0.0000 C   0  0  0  0  0  0  0  0  0  0  0  0
    9.2831   -8.2957    0.0000 C   0  0  0  0  0  0  0  0  0  0  0  0
    7.8540   -8.3040    0.0000 C   0  0  0  0  0  0  0  0  0  0  0  0
   10.0039  -11.1747    0.0000 N   0  0  0  0  0  0  0  0  0  0  0  0
    8.5707   -7.0624    0.0000 C   0  0  0  0  0  0  0  0  0  0  0  0
    7.8540   -7.4749    0.0000 C   0  0  0  0  0  0  0  0  0  0  0  0
    9.2831   -7.4749    0.0000 C   0  0  0  0  0  0  0  0  0  0  0  0
    7.1457   -9.5373    0.0000 C   0  0  0  0  0  0  0  0  0  0  0  0
    7.8624  -10.7789    0.0000 C   0  0  0  0  0  0  0  0  0  0  0  0
    6.4333  -10.7789    0.0000 C   0  0  0  0  0  0  0  0  0  0  0  0
    6.4333   -9.9539    0.0000 C   0  0  0  0  0  0  0  0  0  0  0  0
    7.1457  -11.1914    0.0000 C   0  0  0  0  0  0  0  0  0  0  0  0
    9.2915  -10.7664    0.0000 C   0  0  0  0  0  0  0  0  0  0  0  0
   10.9247   -5.0958    0.0000 C   0  0  0  0  0  0  0  0  0  0  0  0
    9.9956   -9.5248    0.0000 C   0  0  0  0  0  0  0  0  0  0  0  0
   10.7206  -10.7580    0.0000 C   0  0  0  0  0  0  0  0  0  0  0  0
   10.7122   -9.9289    0.0000 C   0  0  0  0  0  0  0  0  0  0  0  0
  2  1  1  0  0  0  0
  3 16  1  0  0  0  0
  4  5  2  0  0  0  0
  5  1  1  0  0  0  0
  6  2  1  0  0  0  0
  7 10  1  0  0  0  0
  8 11  3  0  0  0  0
  9  3  1  0  0  0  0
 10  1  2  0  0  0  0
 11 23  1  0  0  0  0
 12  9  1  0  0  0  0
 13  2  2  0  0  0  0
 14  9  1  0  0  0  0
 15 20  1  0  0  0  0
 16 19  1  0  0  0  0
 17 26  1  0  0  0  0
 18  6  1  0  0  0  0
 19 18  1  0  0  0  0
 20 18  1  0  0  0  0
 21 14  2  0  0  0  0
 22 14  1  0  0  0  0
 23 24  2  0  0  0  0
 24 21  1  0  0  0  0
 25 22  2  0  0  0  0
 26 12  2  0  0  0  0
 27  5  1  0  0  0  0
 28 12  1  0  0  0  0
 29 30  1  0  0  0  0
 30 28  2  0  0  0  0
  4  7  1  0  0  0  0
 15  3  1  0  0  0  0
 25 23  1  0  0  0  0
 29 17  2  0  0  0  0
M  END
> <Molecule Name>
DNDI1498552

> <CDD Number>
CDD-1535716

> <IC50_uM>
0.055 (n=1)

$$$$

SketchEl molfile

 31 34  0  0  0  0  0  0  0  0999 V2000
   10.0001   -6.2375    0.0000 C   0  0  0  0  0  0  0  0  0  0  0  0
    9.2834   -5.8250    0.0000 C   0  0  0  0  0  0  0  0  0  0  0  0
   11.3084   -6.5125    0.0000 N   0  0  0  0  0  0  0  0  0  0  0  0
   10.8959   -7.2292    0.0000 O   0  0  0  0  0  0  0  0  0  0  0  0
   10.0876   -7.0583    0.0000 C   0  0  0  0  0  0  0  0  0  0  0  0
    8.5709   -8.7084    0.0000 N   0  0  0  0  0  0  0  0  0  0  0  0
   10.7543   -5.9000    0.0000 C   0  0  0  0  0  0  0  0  0  0  0  0
    8.5709   -6.2375    0.0000 N   0  0  0  0  0  0  0  0  0  0  0  0
    5.0000  -11.5959    0.0000 N   0  0  0  0  0  0  0  0  0  0  0  0
    8.5751   -9.5334    0.0000 C   0  0  0  0  0  0  0  0  0  0  0  0
    5.7167  -11.1917    0.0000 C   0  0  0  0  0  0  0  0  0  0  0  0
    9.2834   -5.0000    0.0000 O   0  0  0  0  0  0  0  0  0  0  0  0
    9.2917   -9.9417    0.0000 C   0  0  0  0  0  0  0  0  0  0  0  0
    7.8625   -9.9500    0.0000 C   0  0  0  0  0  0  0  0  0  0  0  0
    9.2834   -8.2958    0.0000 C   0  0  0  0  0  0  0  0  0  0  0  0
    7.8542   -8.3042    0.0000 C   0  0  0  0  0  0  0  0  0  0  0  0
   10.0042  -11.1751    0.0000 N   0  0  0  0  0  0  0  0  0  0  0  0
    8.5709   -7.0625    0.0000 C   0  0  0  0  0  0  0  0  0  0  0  0
    7.8542   -7.4750    0.0000 C   0  0  0  0  0  0  0  0  0  0  0  0
    9.2834   -7.4750    0.0000 C   0  0  0  0  0  0  0  0  0  0  0  0
    7.1459   -9.5375    0.0000 C   0  0  0  0  0  0  0  0  0  0  0  0
    7.8625  -10.7792    0.0000 C   0  0  0  0  0  0  0  0  0  0  0  0
    6.4334  -10.7792    0.0000 C   0  0  0  0  0  0  0  0  0  0  0  0
    6.4334   -9.9542    0.0000 C   0  0  0  0  0  0  0  0  0  0  0  0
    7.1459  -11.1917    0.0000 C   0  0  0  0  0  0  0  0  0  0  0  0
    9.2917  -10.7667    0.0000 C   0  0  0  0  0  0  0  0  0  0  0  0
    9.4751   -7.6083    0.0000 C   0  0  0  0  0  0  0  0  0  0  0  0
   10.9251   -5.0958    0.0000 C   0  0  0  0  0  0  0  0  0  0  0  0
    9.9959   -9.5250    0.0000 C   0  0  0  0  0  0  0  0  0  0  0  0
   10.7209  -10.7584    0.0000 C   0  0  0  0  0  0  0  0  0  0  0  0
   10.7126   -9.9292    0.0000 C   0  0  0  0  0  0  0  0  0  0  0  0
  2  1  1  0  0  0  0
  3  7  2  0  0  0  0
  4  5  1  0  0  0  0
  5  1  2  0  0  0  0
  6 16  1  0  0  0  0
  7  1  1  0  0  0  0
  8  2  1  0  0  0  0
  9 11  3  0  0  0  0
 10  6  1  0  0  0  0
 11 23  1  0  0  0  0
 12  2  2  0  0  0  0
 13 10  1  0  0  0  0
 14 10  1  0  0  0  0
 15 20  1  0  0  0  0
 16 19  1  0  0  0  0
 17 26  1  0  0  0  0
 18  8  1  0  0  0  0
 19 18  1  0  0  0  0
 20 18  1  0  0  0  0
 21 14  2  0  0  0  0
 22 14  1  0  0  0  0
 23 24  2  0  0  0  0
 24 21  1  0  0  0  0
 25 22  2  0  0  0  0
 26 13  2  0  0  0  0
 27  5  1  0  0  0  0
 28  7  1  0  0  0  0
 29 13  1  0  0  0  0
 30 31  1  0  0  0  0
 31 29  2  0  0  0  0
  3  4  1  0  0  0  0
 15  6  1  0  0  0  0
 25 23  1  0  0  0  0
 30 17  2  0  0  0  0
M  END
> <Molecule Name>
DNDI1498553

> <CDD Number>
CDD-1535717

> <IC50_uM>
0.0515 (n=1)

$$$$

SketchEl molfile

 30 33  0  0  0  0  0  0  0  0999 V2000
    9.9992   -6.2373    0.0000 C   0  0  0  0  0  0  0  0  0  0  0  0
   10.0867   -7.0580    0.0000 N   0  0  0  0  0  0  0  0  0  0  0  0
    9.2827   -5.8249    0.0000 C   0  0  0  0  0  0  0  0  0  0  0  0
   10.7533   -5.8999    0.0000 C   0  0  0  0  0  0  0  0  0  0  0  0
    8.5703   -8.7078    0.0000 N   0  0  0  0  0  0  0  0  0  0  0  0
   10.8949   -7.2288    0.0000 O   0  0  0  0  0  0  0  0  0  0  0  0
    8.5703   -6.2373    0.0000 N   0  0  0  0  0  0  0  0  0  0  0  0
    5.0000  -11.5948    0.0000 N   0  0  0  0  0  0  0  0  0  0  0  0
   11.3073   -6.5123    0.0000 C   0  0  0  0  0  0  0  0  0  0  0  0
    8.5744   -9.5326    0.0000 C   0  0  0  0  0  0  0  0  0  0  0  0
    5.7166  -11.1907    0.0000 C   0  0  0  0  0  0  0  0  0  0  0  0
    9.2910   -9.9409    0.0000 C   0  0  0  0  0  0  0  0  0  0  0  0
    7.8621   -9.9492    0.0000 C   0  0  0  0  0  0  0  0  0  0  0  0
    7.8537   -8.3037    0.0000 C   0  0  0  0  0  0  0  0  0  0  0  0
    9.2827   -8.2953    0.0000 C   0  0  0  0  0  0  0  0  0  0  0  0
    9.2827   -5.0000    0.0000 O   0  0  0  0  0  0  0  0  0  0  0  0
   10.0034  -11.1740    0.0000 N   0  0  0  0  0  0  0  0  0  0  0  0
    8.5703   -7.0622    0.0000 C   0  0  0  0  0  0  0  0  0  0  0  0
    7.8537   -7.4746    0.0000 C   0  0  0  0  0  0  0  0  0  0  0  0
    9.2827   -7.4746    0.0000 C   0  0  0  0  0  0  0  0  0  0  0  0
    7.1455   -9.5368    0.0000 C   0  0  0  0  0  0  0  0  0  0  0  0
    7.8621  -10.7783    0.0000 C   0  0  0  0  0  0  0  0  0  0  0  0
    6.4331  -10.7783    0.0000 C   0  0  0  0  0  0  0  0  0  0  0  0
    6.4331   -9.9534    0.0000 C   0  0  0  0  0  0  0  0  0  0  0  0
    7.1455  -11.1907    0.0000 C   0  0  0  0  0  0  0  0  0  0  0  0
    9.2910  -10.7658    0.0000 C   0  0  0  0  0  0  0  0  0  0  0  0
   12.1280   -6.4289    0.0000 C   0  0  0  0  0  0  0  0  0  0  0  0
    9.9950   -9.5243    0.0000 C   0  0  0  0  0  0  0  0  0  0  0  0
   10.7199  -10.7574    0.0000 C   0  0  0  0  0  0  0  0  0  0  0  0
   10.7116   -9.9284    0.0000 C   0  0  0  0  0  0  0  0  0  0  0  0
  2  1  2  0  0  0  0
  3  1  1  0  0  0  0
  4  1  1  0  0  0  0
  5 14  1  0  0  0  0
  6  2  1  0  0  0  0
  7  3  1  0  0  0  0
  8 11  3  0  0  0  0
  9  4  2  0  0  0  0
 10  5  1  0  0  0  0
 11 23  1  0  0  0  0
 12 10  1  0  0  0  0
 13 10  1  0  0  0  0
 14 19  1  0  0  0  0
 15 20  1  0  0  0  0
 16  3  2  0  0  0  0
 17 26  1  0  0  0  0
 18  7  1  0  0  0  0
 19 18  1  0  0  0  0
 20 18  1  0  0  0  0
 21 13  2  0  0  0  0
 22 13  1  0  0  0  0
 23 24  2  0  0  0  0
 24 21  1  0  0  0  0
 25 22  2  0  0  0  0
 26 12  2  0  0  0  0
 27  9  1  0  0  0  0
 28 12  1  0  0  0  0
 29 30  1  0  0  0  0
 30 28  2  0  0  0  0
  9  6  1  0  0  0  0
 15  5  1  0  0  0  0
 25 23  1  0  0  0  0
 29 17  2  0  0  0  0
M  END
> <Molecule Name>
DNDI1498554

> <CDD Number>
CDD-1535718

> <IC50_uM>
0.05 (n=1)

$$$$

SketchEl molfile

 30 33  0  0  0  0  0  0  0  0999 V2000
    9.9992   -6.2373    0.0000 C   0  0  0  0  0  0  0  0  0  0  0  0
   10.7533   -5.8999    0.0000 N   0  0  0  0  0  0  0  0  0  0  0  0
    9.2827   -5.8249    0.0000 C   0  0  0  0  0  0  0  0  0  0  0  0
    8.5703   -8.7078    0.0000 N   0  0  0  0  0  0  0  0  0  0  0  0
   10.0867   -7.0580    0.0000 C   0  0  0  0  0  0  0  0  0  0  0  0
   11.3073   -6.5123    0.0000 C   0  0  0  0  0  0  0  0  0  0  0  0
   10.8949   -7.2288    0.0000 O   0  0  0  0  0  0  0  0  0  0  0  0
    8.5703   -6.2373    0.0000 N   0  0  0  0  0  0  0  0  0  0  0  0
    5.0000  -11.5948    0.0000 N   0  0  0  0  0  0  0  0  0  0  0  0
    8.5744   -9.5326    0.0000 C   0  0  0  0  0  0  0  0  0  0  0  0
    5.7166  -11.1907    0.0000 C   0  0  0  0  0  0  0  0  0  0  0  0
    9.2910   -9.9409    0.0000 C   0  0  0  0  0  0  0  0  0  0  0  0
    7.8621   -9.9492    0.0000 C   0  0  0  0  0  0  0  0  0  0  0  0
    7.8537   -8.3037    0.0000 C   0  0  0  0  0  0  0  0  0  0  0  0
    9.2827   -8.2953    0.0000 C   0  0  0  0  0  0  0  0  0  0  0  0
    9.2827   -5.0000    0.0000 O   0  0  0  0  0  0  0  0  0  0  0  0
   10.0034  -11.1740    0.0000 N   0  0  0  0  0  0  0  0  0  0  0  0
    8.5703   -7.0622    0.0000 C   0  0  0  0  0  0  0  0  0  0  0  0
    7.8537   -7.4746    0.0000 C   0  0  0  0  0  0  0  0  0  0  0  0
    9.2827   -7.4746    0.0000 C   0  0  0  0  0  0  0  0  0  0  0  0
    7.1455   -9.5368    0.0000 C   0  0  0  0  0  0  0  0  0  0  0  0
    7.8621  -10.7783    0.0000 C   0  0  0  0  0  0  0  0  0  0  0  0
    6.4331  -10.7783    0.0000 C   0  0  0  0  0  0  0  0  0  0  0  0
    6.4331   -9.9534    0.0000 C   0  0  0  0  0  0  0  0  0  0  0  0
    7.1455  -11.1907    0.0000 C   0  0  0  0  0  0  0  0  0  0  0  0
    9.2910  -10.7658    0.0000 C   0  0  0  0  0  0  0  0  0  0  0  0
   12.1280   -6.4289    0.0000 C   0  0  0  0  0  0  0  0  0  0  0  0
    9.9950   -9.5243    0.0000 C   0  0  0  0  0  0  0  0  0  0  0  0
   10.7199  -10.7574    0.0000 C   0  0  0  0  0  0  0  0  0  0  0  0
   10.7116   -9.9284    0.0000 C   0  0  0  0  0  0  0  0  0  0  0  0
  2  1  1  0  0  0  0
  3  1  1  0  0  0  0
  4 14  1  0  0  0  0
  5  1  2  0  0  0  0
  6  2  2  0  0  0  0
  7  5  1  0  0  0  0
  8  3  1  0  0  0  0
  9 11  3  0  0  0  0
 10  4  1  0  0  0  0
 11 23  1  0  0  0  0
 12 10  1  0  0  0  0
 13 10  1  0  0  0  0
 14 19  1  0  0  0  0
 15 20  1  0  0  0  0
 16  3  2  0  0  0  0
 17 26  1  0  0  0  0
 18  8  1  0  0  0  0
 19 18  1  0  0  0  0
 20 18  1  0  0  0  0
 21 13  2  0  0  0  0
 22 13  1  0  0  0  0
 23 24  2  0  0  0  0
 24 21  1  0  0  0  0
 25 22  2  0  0  0  0
 26 12  2  0  0  0  0
 27  6  1  0  0  0  0
 28 12  1  0  0  0  0
 29 30  1  0  0  0  0
 30 28  2  0  0  0  0
  6  7  1  0  0  0  0
 15  4  1  0  0  0  0
 25 23  1  0  0  0  0
 29 17  2  0  0  0  0
M  END
> <Molecule Name>
DNDI1498555

> <CDD Number>
CDD-1535719

> <IC50_uM>
0.1145 (n=1)

$$$$

SketchEl molfile

 30 33  0  0  0  0  0  0  0  0999 V2000
    9.9990   -6.2373    0.0000 C   0  0  0  0  0  0  0  0  0  0  0  0
    9.2825   -5.8249    0.0000 C   0  0  0  0  0  0  0  0  0  0  0  0
   10.7530   -5.8998    0.0000 C   0  0  0  0  0  0  0  0  0  0  0  0
    8.5701   -8.7076    0.0000 N   0  0  0  0  0  0  0  0  0  0  0  0
   11.3071   -6.5122    0.0000 N   0  0  0  0  0  0  0  0  0  0  0  0
   10.0865   -7.0579    0.0000 O   0  0  0  0  0  0  0  0  0  0  0  0
    8.5701   -6.2373    0.0000 N   0  0  0  0  0  0  0  0  0  0  0  0
   10.8947   -7.2287    0.0000 C   0  0  0  0  0  0  0  0  0  0  0  0
    5.0000  -11.5987    0.0000 N   0  0  0  0  0  0  0  0  0  0  0  0
    8.5743   -9.5324    0.0000 C   0  0  0  0  0  0  0  0  0  0  0  0
    5.7165  -11.1904    0.0000 C   0  0  0  0  0  0  0  0  0  0  0  0
    9.2908   -9.9407    0.0000 C   0  0  0  0  0  0  0  0  0  0  0  0
    9.2825   -5.0000    0.0000 O   0  0  0  0  0  0  0  0  0  0  0  0
    7.8619   -9.9490    0.0000 C   0  0  0  0  0  0  0  0  0  0  0  0
    9.2825   -8.2952    0.0000 C   0  0  0  0  0  0  0  0  0  0  0  0
    7.8536   -8.3035    0.0000 C   0  0  0  0  0  0  0  0  0  0  0  0
   10.0032  -11.1738    0.0000 N   0  0  0  0  0  0  0  0  0  0  0  0
    8.5701   -7.0621    0.0000 C   0  0  0  0  0  0  0  0  0  0  0  0
    7.8536   -7.4745    0.0000 C   0  0  0  0  0  0  0  0  0  0  0  0
    9.2825   -7.4745    0.0000 C   0  0  0  0  0  0  0  0  0  0  0  0
    7.1454   -9.5366    0.0000 C   0  0  0  0  0  0  0  0  0  0  0  0
    7.8619  -10.7780    0.0000 C   0  0  0  0  0  0  0  0  0  0  0  0
    6.4330  -10.7780    0.0000 C   0  0  0  0  0  0  0  0  0  0  0  0
    6.4330   -9.9490    0.0000 C   0  0  0  0  0  0  0  0  0  0  0  0
    7.1454  -11.1904    0.0000 C   0  0  0  0  0  0  0  0  0  0  0  0
    9.2908  -10.7655    0.0000 C   0  0  0  0  0  0  0  0  0  0  0  0
   10.9238   -5.0958    0.0000 C   0  0  0  0  0  0  0  0  0  0  0  0
    9.9948   -9.5241    0.0000 C   0  0  0  0  0  0  0  0  0  0  0  0
   10.7197  -10.7572    0.0000 C   0  0  0  0  0  0  0  0  0  0  0  0
   10.7114   -9.9282    0.0000 C   0  0  0  0  0  0  0  0  0  0  0  0
  2  1  1  0  0  0  0
  3  1  2  0  0  0  0
  4 16  1  0  0  0  0
  5  3  1  0  0  0  0
  6  1  1  0  0  0  0
  7  2  1  0  0  0  0
  8  6  1  0  0  0  0
  9 11  3  0  0  0  0
 10  4  1  0  0  0  0
 11 23  1  0  0  0  0
 12 10  1  0  0  0  0
 13  2  2  0  0  0  0
 14 10  1  0  0  0  0
 15 20  1  0  0  0  0
 16 19  1  0  0  0  0
 17 26  1  0  0  0  0
 18  7  1  0  0  0  0
 19 18  1  0  0  0  0
 20 18  1  0  0  0  0
 21 14  2  0  0  0  0
 22 14  1  0  0  0  0
 23 24  2  0  0  0  0
 24 21  1  0  0  0  0
 25 22  2  0  0  0  0
 26 12  2  0  0  0  0
 27  3  1  0  0  0  0
 28 12  1  0  0  0  0
 29 30  1  0  0  0  0
 30 28  2  0  0  0  0
  5  8  2  0  0  0  0
 15  4  1  0  0  0  0
 25 23  1  0  0  0  0
 29 17  2  0  0  0  0
M  END
> <Molecule Name>
DNDI1498556

> <CDD Number>
CDD-1535720

> <IC50_uM>
0.183 (n=1)

$$$$

SketchEl molfile

 30 33  0  0  0  0  0  0  0  0999 V2000
    9.9985   -6.2372    0.0000 C   0  0  0  0  0  0  0  0  0  0  0  0
   10.0859   -7.0577    0.0000 N   0  0  0  0  0  0  0  0  0  0  0  0
    9.2820   -5.8248    0.0000 C   0  0  0  0  0  0  0  0  0  0  0  0
   10.7524   -5.8998    0.0000 C   0  0  0  0  0  0  0  0  0  0  0  0
   10.8940   -7.2285    0.0000 N   0  0  0  0  0  0  0  0  0  0  0  0
    8.5697   -8.7072    0.0000 N   0  0  0  0  0  0  0  0  0  0  0  0
    8.5697   -6.2372    0.0000 N   0  0  0  0  0  0  0  0  0  0  0  0
    5.0000  -11.5980    0.0000 N   0  0  0  0  0  0  0  0  0  0  0  0
    8.5739   -9.5320    0.0000 C   0  0  0  0  0  0  0  0  0  0  0  0
   11.3064   -6.5121    0.0000 C   0  0  0  0  0  0  0  0  0  0  0  0
    5.7164  -11.1898    0.0000 C   0  0  0  0  0  0  0  0  0  0  0  0
    9.2903   -9.9402    0.0000 C   0  0  0  0  0  0  0  0  0  0  0  0
    7.8616   -9.9485    0.0000 C   0  0  0  0  0  0  0  0  0  0  0  0
    7.8533   -8.3032    0.0000 C   0  0  0  0  0  0  0  0  0  0  0  0
    9.2820   -8.2949    0.0000 C   0  0  0  0  0  0  0  0  0  0  0  0
    9.2820   -5.0000    0.0000 O   0  0  0  0  0  0  0  0  0  0  0  0
   10.0026  -11.1731    0.0000 N   0  0  0  0  0  0  0  0  0  0  0  0
    8.5697   -7.0619    0.0000 C   0  0  0  0  0  0  0  0  0  0  0  0
    7.8533   -7.4743    0.0000 C   0  0  0  0  0  0  0  0  0  0  0  0
    9.2820   -7.4743    0.0000 C   0  0  0  0  0  0  0  0  0  0  0  0
    7.1452   -9.5361    0.0000 C   0  0  0  0  0  0  0  0  0  0  0  0
    7.8616  -10.7774    0.0000 C   0  0  0  0  0  0  0  0  0  0  0  0
    6.4329  -10.7774    0.0000 C   0  0  0  0  0  0  0  0  0  0  0  0
    6.4329   -9.9485    0.0000 C   0  0  0  0  0  0  0  0  0  0  0  0
    7.1452  -11.1898    0.0000 C   0  0  0  0  0  0  0  0  0  0  0  0
    9.2903  -10.7649    0.0000 C   0  0  0  0  0  0  0  0  0  0  0  0
    9.9943   -9.5236    0.0000 C   0  0  0  0  0  0  0  0  0  0  0  0
   10.7191  -10.7566    0.0000 C   0  0  0  0  0  0  0  0  0  0  0  0
   12.1270   -6.4288    0.0000 C   0  0  0  0  0  0  0  0  0  0  0  0
   10.7107   -9.9277    0.0000 C   0  0  0  0  0  0  0  0  0  0  0  0
  2  1  1  0  0  0  0
  3  1  1  0  0  0  0
  4  1  2  0  0  0  0
  5  2  1  0  0  0  0
  6 14  1  0  0  0  0
  7  3  1  0  0  0  0
  8 11  3  0  0  0  0
  9  6  1  0  0  0  0
 10  4  1  0  0  0  0
 11 23  1  0  0  0  0
 12  9  1  0  0  0  0
 13  9  1  0  0  0  0
 14 19  1  0  0  0  0
 15 20  1  0  0  0  0
 16  3  2  0  0  0  0
 17 26  1  0  0  0  0
 18  7  1  0  0  0  0
 19 18  1  0  0  0  0
 20 18  1  0  0  0  0
 21 13  2  0  0  0  0
 22 13  1  0  0  0  0
 23 24  2  0  0  0  0
 24 21  1  0  0  0  0
 25 22  2  0  0  0  0
 26 12  2  0  0  0  0
 27 12  1  0  0  0  0
 28 30  1  0  0  0  0
 29 10  1  0  0  0  0
 30 27  2  0  0  0  0
 10  5  2  0  0  0  0
 15  6  1  0  0  0  0
 25 23  1  0  0  0  0
 28 17  2  0  0  0  0
M  END
> <Molecule Name>
DNDI1498557

> <CDD Number>
CDD-1535721

> <IC50_uM>
0.2355 (n=1)

$$$$

SketchEl molfile

 29 32  0  0  0  0  0  0  0  0999 V2000
    9.9984   -6.2371    0.0000 C   0  0  0  0  0  0  0  0  0  0  0  0
    9.2820   -5.8247    0.0000 C   0  0  0  0  0  0  0  0  0  0  0  0
    8.5697   -8.7071    0.0000 N   0  0  0  0  0  0  0  0  0  0  0  0
   10.7523   -5.8997    0.0000 N   0  0  0  0  0  0  0  0  0  0  0  0
    8.5697   -6.2371    0.0000 N   0  0  0  0  0  0  0  0  0  0  0  0
    5.0000  -11.5979    0.0000 N   0  0  0  0  0  0  0  0  0  0  0  0
    8.5739   -9.5319    0.0000 C   0  0  0  0  0  0  0  0  0  0  0  0
   10.0859   -7.0577    0.0000 S   0  0  0  0  0  0  0  0  0  0  0  0
    5.7164  -11.1897    0.0000 C   0  0  0  0  0  0  0  0  0  0  0  0
    9.2903   -9.9401    0.0000 C   0  0  0  0  0  0  0  0  0  0  0  0
   11.3063   -6.5120    0.0000 C   0  0  0  0  0  0  0  0  0  0  0  0
    7.8616   -9.9484    0.0000 C   0  0  0  0  0  0  0  0  0  0  0  0
    9.2820   -8.2948    0.0000 C   0  0  0  0  0  0  0  0  0  0  0  0
    7.8533   -8.3031    0.0000 C   0  0  0  0  0  0  0  0  0  0  0  0
    9.2820   -5.0000    0.0000 O   0  0  0  0  0  0  0  0  0  0  0  0
   10.8940   -7.2284    0.0000 C   0  0  0  0  0  0  0  0  0  0  0  0
   10.0026  -11.1730    0.0000 N   0  0  0  0  0  0  0  0  0  0  0  0
    8.5697   -7.0618    0.0000 C   0  0  0  0  0  0  0  0  0  0  0  0
    7.8533   -7.4742    0.0000 C   0  0  0  0  0  0  0  0  0  0  0  0
    9.2820   -7.4742    0.0000 C   0  0  0  0  0  0  0  0  0  0  0  0
    7.1452   -9.5361    0.0000 C   0  0  0  0  0  0  0  0  0  0  0  0
    7.8616  -10.7773    0.0000 C   0  0  0  0  0  0  0  0  0  0  0  0
    6.4329  -10.7773    0.0000 C   0  0  0  0  0  0  0  0  0  0  0  0
    6.4329   -9.9484    0.0000 C   0  0  0  0  0  0  0  0  0  0  0  0
    7.1452  -11.1897    0.0000 C   0  0  0  0  0  0  0  0  0  0  0  0
    9.2903  -10.7648    0.0000 C   0  0  0  0  0  0  0  0  0  0  0  0
    9.9943   -9.5236    0.0000 C   0  0  0  0  0  0  0  0  0  0  0  0
   10.7190  -10.7565    0.0000 C   0  0  0  0  0  0  0  0  0  0  0  0
   10.7107   -9.9276    0.0000 C   0  0  0  0  0  0  0  0  0  0  0  0
  2  1  1  0  0  0  0
  3 14  1  0  0  0  0
  4  1  2  0  0  0  0
  5  2  1  0  0  0  0
  6  9  3  0  0  0  0
  7  3  1  0  0  0  0
  8  1  1  0  0  0  0
  9 23  1  0  0  0  0
 10  7  1  0  0  0  0
 11  4  1  0  0  0  0
 12  7  1  0  0  0  0
 13 20  1  0  0  0  0
 14 19  1  0  0  0  0
 15  2  2  0  0  0  0
 16  8  1  0  0  0  0
 17 26  1  0  0  0  0
 18  5  1  0  0  0  0
 19 18  1  0  0  0  0
 20 18  1  0  0  0  0
 21 12  2  0  0  0  0
 22 12  1  0  0  0  0
 23 24  2  0  0  0  0
 24 21  1  0  0  0  0
 25 22  2  0  0  0  0
 26 10  2  0  0  0  0
 27 10  1  0  0  0  0
 28 17  2  0  0  0  0
 29 27  2  0  0  0  0
 11 16  2  0  0  0  0
 13  3  1  0  0  0  0
 29 28  1  0  0  0  0
 25 23  1  0  0  0  0
M  END
> <Molecule Name>
DNDI1498558

> <CDD Number>
CDD-1535722

> <IC50_uM>
0.1385 (n=1)

$$$$

SketchEl molfile

 27 29  0  0  0  0  0  0  0  0999 V2000
    8.5710   -6.2376    0.0000 C   0  0  0  0  0  0  0  0  0  0  0  0
    8.5710   -7.0626    0.0000 N   0  0  0  0  0  0  0  0  0  0  0  0
    8.5710   -8.7085    0.0000 N   0  0  0  0  0  0  0  0  0  0  0  0
    5.0000  -11.5961    0.0000 N   0  0  0  0  0  0  0  0  0  0  0  0
    8.5751   -9.5335    0.0000 C   0  0  0  0  0  0  0  0  0  0  0  0
    9.2835   -5.8250    0.0000 C   0  0  0  0  0  0  0  0  0  0  0  0
    5.7167  -11.1919    0.0000 C   0  0  0  0  0  0  0  0  0  0  0  0
    9.2918   -9.9419    0.0000 C   0  0  0  0  0  0  0  0  0  0  0  0
    7.8626   -9.9502    0.0000 C   0  0  0  0  0  0  0  0  0  0  0  0
    9.2835   -7.4751    0.0000 C   0  0  0  0  0  0  0  0  0  0  0  0
    7.8543   -7.4751    0.0000 C   0  0  0  0  0  0  0  0  0  0  0  0
    9.2835   -8.2960    0.0000 C   0  0  0  0  0  0  0  0  0  0  0  0
    7.8543   -8.3043    0.0000 C   0  0  0  0  0  0  0  0  0  0  0  0
    7.8543   -5.8250    0.0000 O   0  0  0  0  0  0  0  0  0  0  0  0
   10.0044  -11.1753    0.0000 N   0  0  0  0  0  0  0  0  0  0  0  0
    7.8626  -10.7794    0.0000 C   0  0  0  0  0  0  0  0  0  0  0  0
    7.1459   -9.5377    0.0000 C   0  0  0  0  0  0  0  0  0  0  0  0
    6.4334  -10.7794    0.0000 C   0  0  0  0  0  0  0  0  0  0  0  0
    7.1459  -11.1919    0.0000 C   0  0  0  0  0  0  0  0  0  0  0  0
    6.4334   -9.9544    0.0000 C   0  0  0  0  0  0  0  0  0  0  0  0
    9.2918  -10.7669    0.0000 C   0  0  0  0  0  0  0  0  0  0  0  0
    9.4960   -6.6209    0.0000 C   0  0  0  0  0  0  0  0  0  0  0  0
   10.0002   -6.2376    0.0000 C   0  0  0  0  0  0  0  0  0  0  0  0
    9.2835   -5.0000    0.0000 C   0  0  0  0  0  0  0  0  0  0  0  0
    9.9960   -9.5252    0.0000 C   0  0  0  0  0  0  0  0  0  0  0  0
   10.7211  -10.7586    0.0000 C   0  0  0  0  0  0  0  0  0  0  0  0
   10.7127   -9.9294    0.0000 C   0  0  0  0  0  0  0  0  0  0  0  0
  2  1  1  0  0  0  0
  3 13  1  0  0  0  0
  4  7  3  0  0  0  0
  5  3  1  0  0  0  0
  6  1  1  0  0  0  0
  7 18  1  0  0  0  0
  8  5  1  0  0  0  0
  9  5  1  0  0  0  0
 10  2  1  0  0  0  0
 11  2  1  0  0  0  0
 12 10  1  0  0  0  0
 13 11  1  0  0  0  0
 14  1  2  0  0  0  0
 15 21  1  0  0  0  0
 16  9  1  0  0  0  0
 17  9  2  0  0  0  0
 18 20  2  0  0  0  0
 19 16  2  0  0  0  0
 20 17  1  0  0  0  0
 21  8  2  0  0  0  0
 22  6  1  0  0  0  0
 23  6  1  0  0  0  0
 24  6  1  0  0  0  0
 25  8  1  0  0  0  0
 26 15  2  0  0  0  0
 27 25  2  0  0  0  0
 12  3  1  0  0  0  0
 27 26  1  0  0  0  0
 19 18  1  0  0  0  0
M  END
> <Molecule Name>
DNDI1498559

> <CDD Number>
CDD-1535723

> <IC50_uM>
0.254 (n=1)

$$$$

SketchEl molfile

 29 32  0  0  0  0  0  0  0  0999 V2000
    9.2860   -6.3746    0.0000 C   0  0  0  0  0  0  0  0  0  0  0  0
    8.5737   -6.7869    0.0000 C   0  0  0  0  0  0  0  0  0  0  0  0
    8.5737   -7.6116    0.0000 N   0  0  0  0  0  0  0  0  0  0  0  0
    9.3693   -5.5498    0.0000 C   0  0  0  0  0  0  0  0  0  0  0  0
    8.5737   -9.2569    0.0000 N   0  0  0  0  0  0  0  0  0  0  0  0
   10.1773   -5.3791    0.0000 N   0  0  0  0  0  0  0  0  0  0  0  0
   10.0399   -6.7078    0.0000 S   0  0  0  0  0  0  0  0  0  0  0  0
   10.5897   -6.0955    0.0000 C   0  0  0  0  0  0  0  0  0  0  0  0
    5.0000  -12.1475    0.0000 N   0  0  0  0  0  0  0  0  0  0  0  0
    8.5779  -10.0816    0.0000 C   0  0  0  0  0  0  0  0  0  0  0  0
    5.7206  -11.7393    0.0000 C   0  0  0  0  0  0  0  0  0  0  0  0
    7.8573   -6.3746    0.0000 O   0  0  0  0  0  0  0  0  0  0  0  0
    9.2943  -10.4898    0.0000 C   0  0  0  0  0  0  0  0  0  0  0  0
    7.8656  -10.4981    0.0000 C   0  0  0  0  0  0  0  0  0  0  0  0
    7.8573   -8.0240    0.0000 C   0  0  0  0  0  0  0  0  0  0  0  0
    9.2860   -8.0240    0.0000 C   0  0  0  0  0  0  0  0  0  0  0  0
    7.8573   -8.8528    0.0000 C   0  0  0  0  0  0  0  0  0  0  0  0
    9.2860   -8.8445    0.0000 C   0  0  0  0  0  0  0  0  0  0  0  0
   10.0065  -11.7227    0.0000 N   0  0  0  0  0  0  0  0  0  0  0  0
    7.8656  -11.3270    0.0000 C   0  0  0  0  0  0  0  0  0  0  0  0
    7.1492  -10.0857    0.0000 C   0  0  0  0  0  0  0  0  0  0  0  0
    6.4370  -11.3270    0.0000 C   0  0  0  0  0  0  0  0  0  0  0  0
    7.1492  -11.7393    0.0000 C   0  0  0  0  0  0  0  0  0  0  0  0
    6.4370  -10.4981    0.0000 C   0  0  0  0  0  0  0  0  0  0  0  0
    9.2943  -11.3145    0.0000 C   0  0  0  0  0  0  0  0  0  0  0  0
    8.7570   -5.0000    0.0000 C   0  0  0  0  0  0  0  0  0  0  0  0
    9.9982  -10.0732    0.0000 C   0  0  0  0  0  0  0  0  0  0  0  0
   10.7230  -11.3061    0.0000 C   0  0  0  0  0  0  0  0  0  0  0  0
   10.7146  -10.4773    0.0000 C   0  0  0  0  0  0  0  0  0  0  0  0
  2  1  1  0  0  0  0
  3  2  1  0  0  0  0
  4  1  2  0  0  0  0
  5 17  1  0  0  0  0
  6  4  1  0  0  0  0
  7  1  1  0  0  0  0
  8  7  1  0  0  0  0
  9 11  3  0  0  0  0
 10  5  1  0  0  0  0
 11 22  1  0  0  0  0
 12  2  2  0  0  0  0
 13 10  1  0  0  0  0
 14 10  1  0  0  0  0
 15  3  1  0  0  0  0
 16  3  1  0  0  0  0
 17 15  1  0  0  0  0
 18 16  1  0  0  0  0
 19 25  1  0  0  0  0
 20 14  1  0  0  0  0
 21 14  2  0  0  0  0
 22 24  2  0  0  0  0
 23 20  2  0  0  0  0
 24 21  1  0  0  0  0
 25 13  2  0  0  0  0
 26  4  1  0  0  0  0
 27 13  1  0  0  0  0
 28 19  2  0  0  0  0
 29 27  2  0  0  0  0
  6  8  2  0  0  0  0
 18  5  1  0  0  0  0
 29 28  1  0  0  0  0
 23 22  1  0  0  0  0
M  END
> <Molecule Name>
DNDI1498560

> <CDD Number>
CDD-1535724

> <IC50_uM>
0.513 (n=1)

$$$$

SketchEl molfile

 26 29  0  0  0  0  0  0  0  0999 V2000
    8.5743   -6.2706    0.0000 C   0  0  0  0  0  0  0  0  0  0  0  0
    8.5743   -7.0954    0.0000 N   0  0  0  0  0  0  0  0  0  0  0  0
    8.5743   -8.7409    0.0000 N   0  0  0  0  0  0  0  0  0  0  0  0
    7.9036   -5.7832    0.0000 N   0  0  0  0  0  0  0  0  0  0  0  0
    9.2366   -5.7832    0.0000 S   0  0  0  0  0  0  0  0  0  0  0  0
    5.0000  -11.6320    0.0000 N   0  0  0  0  0  0  0  0  0  0  0  0
    8.5784   -9.5658    0.0000 C   0  0  0  0  0  0  0  0  0  0  0  0
    5.7207  -11.2237    0.0000 C   0  0  0  0  0  0  0  0  0  0  0  0
    9.2950   -9.9740    0.0000 C   0  0  0  0  0  0  0  0  0  0  0  0
    8.1577   -5.0000    0.0000 C   0  0  0  0  0  0  0  0  0  0  0  0
    7.8661   -9.9823    0.0000 C   0  0  0  0  0  0  0  0  0  0  0  0
    9.2866   -7.5078    0.0000 C   0  0  0  0  0  0  0  0  0  0  0  0
    7.8578   -7.5078    0.0000 C   0  0  0  0  0  0  0  0  0  0  0  0
    9.2866   -8.3285    0.0000 C   0  0  0  0  0  0  0  0  0  0  0  0
    7.8578   -8.3368    0.0000 C   0  0  0  0  0  0  0  0  0  0  0  0
    8.9825   -5.0000    0.0000 C   0  0  0  0  0  0  0  0  0  0  0  0
   10.0073  -11.2071    0.0000 N   0  0  0  0  0  0  0  0  0  0  0  0
    7.8661  -10.8113    0.0000 C   0  0  0  0  0  0  0  0  0  0  0  0
    7.1496   -9.5699    0.0000 C   0  0  0  0  0  0  0  0  0  0  0  0
    6.4372  -10.8113    0.0000 C   0  0  0  0  0  0  0  0  0  0  0  0
    7.1496  -11.2237    0.0000 C   0  0  0  0  0  0  0  0  0  0  0  0
    6.4372   -9.9823    0.0000 C   0  0  0  0  0  0  0  0  0  0  0  0
    9.2950  -10.7988    0.0000 C   0  0  0  0  0  0  0  0  0  0  0  0
    9.9990   -9.5574    0.0000 C   0  0  0  0  0  0  0  0  0  0  0  0
   10.7238  -10.7905    0.0000 C   0  0  0  0  0  0  0  0  0  0  0  0
   10.7155   -9.9615    0.0000 C   0  0  0  0  0  0  0  0  0  0  0  0
  2  1  1  0  0  0  0
  3 15  1  0  0  0  0
  4  1  2  0  0  0  0
  5  1  1  0  0  0  0
  6  8  3  0  0  0  0
  7  3  1  0  0  0  0
  8 20  1  0  0  0  0
  9  7  1  0  0  0  0
 10  4  1  0  0  0  0
 11  7  1  0  0  0  0
 12  2  1  0  0  0  0
 13  2  1  0  0  0  0
 14 12  1  0  0  0  0
 15 13  1  0  0  0  0
 16  5  1  0  0  0  0
 17 23  1  0  0  0  0
 18 11  1  0  0  0  0
 19 11  2  0  0  0  0
 20 22  2  0  0  0  0
 21 18  2  0  0  0  0
 22 19  1  0  0  0  0
 23  9  2  0  0  0  0
 24  9  1  0  0  0  0
 25 17  2  0  0  0  0
 26 24  2  0  0  0  0
 10 16  2  0  0  0  0
 14  3  1  0  0  0  0
 26 25  1  0  0  0  0
 21 20  1  0  0  0  0
M  END
> <Molecule Name>
DNDI1498561

> <CDD Number>
CDD-1535725

> <IC50_uM>
0.0495 (n=1)

$$$$

SketchEl molfile

 33 36  0  0  0  0  0  0  0  0999 V2000
    5.7160   -8.7187    0.0000 C   0  0  0  0  0  0  0  0  0  0  0  0
    5.7148   -9.5461    0.0000 C   0  0  0  0  0  0  0  0  0  0  0  0
    6.4297   -9.9589    0.0000 C   0  0  0  0  0  0  0  0  0  0  0  0
    7.1461   -9.5456    0.0000 C   0  0  0  0  0  0  0  0  0  0  0  0
    7.1432   -8.7151    0.0000 C   0  0  0  0  0  0  0  0  0  0  0  0
    6.4279   -8.3059    0.0000 C   0  0  0  0  0  0  0  0  0  0  0  0
    7.8562   -8.2999    0.0000 C   0  0  0  0  0  0  0  0  0  0  0  0
    8.5723   -8.7097    0.0000 C   0  0  0  0  0  0  0  0  0  0  0  0
    7.8530   -7.4749    0.0000 N   0  0  0  0  0  0  0  0  0  0  0  0
    8.5720   -9.5323    0.0000 C   0  0  0  0  0  0  0  0  0  0  0  0
    9.2872   -9.9421    0.0000 N   0  0  0  0  0  0  0  0  0  0  0  0
   10.0011   -9.5268    0.0000 C   0  0  0  0  0  0  0  0  0  0  0  0
    9.9953   -8.6976    0.0000 C   0  0  0  0  0  0  0  0  0  0  0  0
    9.2796   -8.2916    0.0000 C   0  0  0  0  0  0  0  0  0  0  0  0
    8.5661   -7.0596    0.0000 C   0  0  0  0  0  0  0  0  0  0  0  0
    9.2811   -7.4746    0.0000 C   0  0  0  0  0  0  0  0  0  0  0  0
    9.9919   -7.0629    0.0000 C   0  0  0  0  0  0  0  0  0  0  0  0
    9.9931   -6.2375    0.0000 N   0  0  0  0  0  0  0  0  0  0  0  0
    9.2772   -5.8255    0.0000 C   0  0  0  0  0  0  0  0  0  0  0  0
    8.5602   -6.2389    0.0000 C   0  0  0  0  0  0  0  0  0  0  0  0
   10.7075   -5.8250    0.0000 C   0  0  0  0  0  0  0  0  0  0  0  0
   11.4220   -6.2375    0.0000 C   0  0  0  0  0  0  0  0  0  0  0  0
   10.7076   -5.0000    0.0000 O   0  0  0  0  0  0  0  0  0  0  0  0
   11.5061   -7.0578    0.0000 C   0  0  0  0  0  0  0  0  0  0  0  0
   12.3131   -7.2294    0.0000 O   0  0  0  0  0  0  0  0  0  0  0  0
   12.7256   -6.5149    0.0000 N   0  0  0  0  0  0  0  0  0  0  0  0
   12.1735   -5.9019    0.0000 C   0  0  0  0  0  0  0  0  0  0  0  0
   12.3445   -5.0948    0.0000 C   0  0  0  0  0  0  0  0  0  0  0  0
   10.8923   -7.6092    0.0000 C   0  0  0  0  0  0  0  0  0  0  0  0
    5.0000   -9.9580    0.0000 C   0  0  0  0  0  0  0  0  0  0  0  0
    4.2859   -9.5449    0.0000 F   0  0  0  0  0  0  0  0  0  0  0  0
    4.9994  -10.7830    0.0000 F   0  0  0  0  0  0  0  0  0  0  0  0
    4.7872   -9.1609    0.0000 F   0  0  0  0  0  0  0  0  0  0  0  0
  2 30  1  0  0  0  0
 30 31  1  0  0  0  0
 30 32  1  0  0  0  0
 30 33  1  0  0  0  0
  3  4  2  0  0  0  0
  7  8  1  0  0  0  0
  7  9  1  0  0  0  0
  4  5  1  0  0  0  0
 15 20  1  0  0  0  0
 16 17  1  0  0  0  0
 17 18  1  0  0  0  0
 18 19  1  0  0  0  0
 19 20  1  0  0  0  0
  8 10  2  0  0  0  0
 18 21  1  0  0  0  0
  2  3  1  0  0  0  0
 21 22  1  0  0  0  0
 10 11  1  0  0  0  0
 21 23  2  0  0  0  0
 22 24  2  0  0  0  0
  5  6  2  0  0  0  0
 11 12  2  0  0  0  0
  6  1  1  0  0  0  0
 12 13  1  0  0  0  0
 24 25  1  0  0  0  0
 25 26  1  0  0  0  0
 26 27  2  0  0  0  0
 27 22  1  0  0  0  0
  1  2  2  0  0  0  0
 27 28  1  0  0  0  0
 13 14  2  0  0  0  0
 24 29  1  0  0  0  0
 14  8  1  0  0  0  0
  5  7  1  0  0  0  0
  9 15  1  0  0  0  0
 15 16  1  0  0  0  0
M  END
> <Molecule Name>
DNDI1499523

> <CDD Number>
CDD-1535726

> <IC50_uM>
0.0270185121722126 ร/รท 1.53017374573084 (n=2)

$$$$

SketchEl molfile

 30 32  0  0  0  0  0  0  0  0999 V2000
    7.8632   -8.7116    0.0000 C   0  0  0  0  0  0  0  0  0  0  0  0
    7.8596   -7.8881    0.0000 O   0  0  0  0  0  0  0  0  0  0  0  0
    7.1447   -7.4796    0.0000 C   0  0  0  0  0  0  0  0  0  0  0  0
    7.1411   -6.6561    0.0000 C   0  0  0  0  0  0  0  0  0  0  0  0
    6.4262   -6.2476    0.0000 C   0  0  0  0  0  0  0  0  0  0  0  0
    6.4225   -5.4242    0.0000 O   0  0  0  0  0  0  0  0  0  0  0  0
    5.7149   -6.6624    0.0000 O   0  0  0  0  0  0  0  0  0  0  0  0
    5.0000   -6.2538    0.0000 C   0  0  0  0  0  0  0  0  0  0  0  0
    7.8524   -6.2413    0.0000 C   0  0  0  0  0  0  0  0  0  0  0  0
    7.8499   -5.4179    0.0000 C   0  0  0  0  0  0  0  0  0  0  0  0
    8.5595   -5.0000    0.0000 C   0  0  0  0  0  0  0  0  0  0  0  0
    9.2787   -5.4097    0.0000 C   0  0  0  0  0  0  0  0  0  0  0  0
    9.2884   -6.2372    0.0000 C   0  0  0  0  0  0  0  0  0  0  0  0
    8.5716   -6.6510    0.0000 C   0  0  0  0  0  0  0  0  0  0  0  0
    8.5740   -7.4744    0.0000 O   0  0  0  0  0  0  0  0  0  0  0  0
    9.2883   -7.8840    0.0000 C   0  0  0  0  0  0  0  0  0  0  0  0
    9.2883   -8.7116    0.0000 C   0  0  0  0  0  0  0  0  0  0  0  0
   10.0025   -9.1214    0.0000 C   0  0  0  0  0  0  0  0  0  0  0  0
   10.0025   -9.9448    0.0000 O   0  0  0  0  0  0  0  0  0  0  0  0
   10.7156  -10.3565    0.0000 C   0  0  0  0  0  0  0  0  0  0  0  0
   11.4293   -9.9459    0.0000 C   0  0  0  0  0  0  0  0  0  0  0  0
   12.1442  -10.3544    0.0000 C   0  0  0  0  0  0  0  0  0  0  0  0
   12.1455  -11.1821    0.0000 C   0  0  0  0  0  0  0  0  0  0  0  0
   11.4317  -11.6013    0.0000 C   0  0  0  0  0  0  0  0  0  0  0  0
   10.7168  -11.1842    0.0000 C   0  0  0  0  0  0  0  0  0  0  0  0
   10.0031  -11.5948    0.0000 C   0  0  0  0  0  0  0  0  0  0  0  0
    9.2894  -12.0055    0.0000 N   0  0  0  0  0  0  0  0  0  0  0  0
   10.7168   -8.7116    0.0000 N   0  0  0  0  0  0  0  0  0  0  0  0
   10.7168   -7.8840    0.0000 C   0  0  0  0  0  0  0  0  0  0  0  0
   10.0025   -7.4661    0.0000 N   0  0  0  0  0  0  0  0  0  0  0  0
  1  2  1  0  0  0  0
  2  3  1  0  0  0  0
  3  4  2  0  0  0  0
  4  5  1  0  0  0  0
  5  6  2  0  0  0  0
  5  7  1  0  0  0  0
  7  8  1  0  0  0  0
  4  9  1  0  0  0  0
  9 14  2  0  0  0  0
  9 10  1  0  0  0  0
 10 11  2  0  0  0  0
 11 12  1  0  0  0  0
 12 13  2  0  0  0  0
 13 14  1  0  0  0  0
 14 15  1  0  0  0  0
 15 16  1  0  0  0  0
 16 30  2  0  0  0  0
 16 17  1  0  0  0  0
 17 18  2  0  0  0  0
 18 19  1  0  0  0  0
 19 20  1  0  0  0  0
 20 25  2  0  0  0  0
 20 21  1  0  0  0  0
 21 22  2  0  0  0  0
 22 23  1  0  0  0  0
 23 24  2  0  0  0  0
 24 25  1  0  0  0  0
 25 26  1  0  0  0  0
 26 27  3  0  0  0  0
 18 28  1  0  0  0  0
 28 29  2  0  0  0  0
 29 30  1  0  0  0  0
M  END
> <Molecule Name>
DNDI1511705

> <CDD Number>
CDD-54563

> <IC50_uM>
3.256 (n=1)

$$$$

SketchEl molfile

 31 34  0  0  0  0  0  0  0  0999 V2000
    5.7160   -8.7187    0.0000 C   0  0  0  0  0  0  0  0  0  0  0  0
    5.7148   -9.5461    0.0000 C   0  0  0  0  0  0  0  0  0  0  0  0
    6.4296   -9.9589    0.0000 C   0  0  0  0  0  0  0  0  0  0  0  0
    7.1461   -9.5456    0.0000 C   0  0  0  0  0  0  0  0  0  0  0  0
    7.1432   -8.7151    0.0000 C   0  0  0  0  0  0  0  0  0  0  0  0
    6.4278   -8.3059    0.0000 C   0  0  0  0  0  0  0  0  0  0  0  0
    7.8561   -8.2999    0.0000 C   0  0  0  0  0  0  0  0  0  0  0  0
    8.5721   -8.7097    0.0000 C   0  0  0  0  0  0  0  0  0  0  0  0
    7.8530   -7.4749    0.0000 N   0  0  0  0  0  0  0  0  0  0  0  0
    8.5659   -7.0597    0.0000 C   0  0  0  0  0  0  0  0  0  0  0  0
    9.2810   -7.4746    0.0000 C   0  0  0  0  0  0  0  0  0  0  0  0
    9.9919   -7.0630    0.0000 C   0  0  0  0  0  0  0  0  0  0  0  0
    9.9930   -6.2375    0.0000 N   0  0  0  0  0  0  0  0  0  0  0  0
    9.2771   -5.8255    0.0000 C   0  0  0  0  0  0  0  0  0  0  0  0
    8.5600   -6.2389    0.0000 C   0  0  0  0  0  0  0  0  0  0  0  0
    8.5719   -9.5323    0.0000 C   0  0  0  0  0  0  0  0  0  0  0  0
    9.2871   -9.9421    0.0000 N   0  0  0  0  0  0  0  0  0  0  0  0
   10.0011   -9.5268    0.0000 C   0  0  0  0  0  0  0  0  0  0  0  0
    9.9953   -8.6976    0.0000 C   0  0  0  0  0  0  0  0  0  0  0  0
    9.2794   -8.2916    0.0000 C   0  0  0  0  0  0  0  0  0  0  0  0
   10.7075   -5.8250    0.0000 C   0  0  0  0  0  0  0  0  0  0  0  0
   11.4220   -6.2375    0.0000 C   0  0  0  0  0  0  0  0  0  0  0  0
   10.7075   -5.0000    0.0000 O   0  0  0  0  0  0  0  0  0  0  0  0
   11.5060   -7.0579    0.0000 O   0  0  0  0  0  0  0  0  0  0  0  0
   12.3130   -7.2295    0.0000 N   0  0  0  0  0  0  0  0  0  0  0  0
   12.7256   -6.5150    0.0000 C   0  0  0  0  0  0  0  0  0  0  0  0
   12.1735   -5.9019    0.0000 C   0  0  0  0  0  0  0  0  0  0  0  0
    5.0000   -9.9580    0.0000 C   0  0  0  0  0  0  0  0  0  0  0  0
    4.2859   -9.5449    0.0000 F   0  0  0  0  0  0  0  0  0  0  0  0
    4.9994  -10.7830    0.0000 F   0  0  0  0  0  0  0  0  0  0  0  0
    4.7871   -9.1609    0.0000 F   0  0  0  0  0  0  0  0  0  0  0  0
  2 28  1  0  0  0  0
 28 29  1  0  0  0  0
 28 30  1  0  0  0  0
 28 31  1  0  0  0  0
 14 15  1  0  0  0  0
  3  4  2  0  0  0  0
  8 16  2  0  0  0  0
  7  8  1  0  0  0  0
 16 17  1  0  0  0  0
 17 18  2  0  0  0  0
  7  9  1  0  0  0  0
 18 19  1  0  0  0  0
  4  5  1  0  0  0  0
 19 20  2  0  0  0  0
 20  8  1  0  0  0  0
  9 10  1  0  0  0  0
 13 21  1  0  0  0  0
 10 11  1  0  0  0  0
 21 22  1  0  0  0  0
  2  3  1  0  0  0  0
 21 23  2  0  0  0  0
 22 24  1  0  0  0  0
  5  6  2  0  0  0  0
  6  1  1  0  0  0  0
  1  2  2  0  0  0  0
  5  7  1  0  0  0  0
 24 25  1  0  0  0  0
 25 26  2  0  0  0  0
 26 27  1  0  0  0  0
 27 22  2  0  0  0  0
 10 15  1  0  0  0  0
 11 12  1  0  0  0  0
 12 13  1  0  0  0  0
 13 14  1  0  0  0  0
M  END
> <Molecule Name>
DNDI1536085

> <CDD Number>
CDD-1535727

> <IC50_uM>
0.09 (n=1)

$$$$

SketchEl molfile

 27 30  0  0  0  0  0  0  0  0999 V2000
    7.1460   -9.9171    0.0000 C   0  0  0  0  0  0  0  0  0  0  0  0
    7.8544   -7.0293    0.0000 N   0  0  0  0  0  0  0  0  0  0  0  0
    7.8544   -6.2043    0.0000 C   0  0  0  0  0  0  0  0  0  0  0  0
    7.8586   -9.5004    0.0000 C   0  0  0  0  0  0  0  0  0  0  0  0
    7.8544   -8.6753    0.0000 N   0  0  0  0  0  0  0  0  0  0  0  0
    6.4293   -9.5046    0.0000 C   0  0  0  0  0  0  0  0  0  0  0  0
    8.5753   -9.9088    0.0000 C   0  0  0  0  0  0  0  0  0  0  0  0
    7.1460  -10.7464    0.0000 C   0  0  0  0  0  0  0  0  0  0  0  0
    5.7167   -9.9213    0.0000 C   0  0  0  0  0  0  0  0  0  0  0  0
    7.1377   -7.4419    0.0000 C   0  0  0  0  0  0  0  0  0  0  0  0
    8.5670   -7.4419    0.0000 C   0  0  0  0  0  0  0  0  0  0  0  0
    7.1377   -8.2711    0.0000 C   0  0  0  0  0  0  0  0  0  0  0  0
    8.5670   -8.2628    0.0000 C   0  0  0  0  0  0  0  0  0  0  0  0
    7.1377   -5.7917    0.0000 O   0  0  0  0  0  0  0  0  0  0  0  0
    9.2879  -11.1422    0.0000 N   0  0  0  0  0  0  0  0  0  0  0  0
    9.9963   -9.8963    0.0000 N   0  0  0  0  0  0  0  0  0  0  0  0
    8.5670   -5.7917    0.0000 C   0  0  0  0  0  0  0  0  0  0  0  0
   10.0046  -10.7255    0.0000 C   0  0  0  0  0  0  0  0  0  0  0  0
    5.7167  -10.7464    0.0000 C   0  0  0  0  0  0  0  0  0  0  0  0
    6.4251   -8.6795    0.0000 F   0  0  0  0  0  0  0  0  0  0  0  0
    6.4293  -11.1589    0.0000 C   0  0  0  0  0  0  0  0  0  0  0  0
    8.5753  -10.7339    0.0000 C   0  0  0  0  0  0  0  0  0  0  0  0
    9.2796   -9.4921    0.0000 C   0  0  0  0  0  0  0  0  0  0  0  0
    5.0000  -11.1589    0.0000 Cl  0  0  0  0  0  0  0  0  0  0  0  0
    9.5796   -5.2125    0.0000 C   0  0  0  0  0  0  0  0  0  0  0  0
    9.3671   -6.0084    0.0000 C   0  0  0  0  0  0  0  0  0  0  0  0
    8.7837   -5.0000    0.0000 C   0  0  0  0  0  0  0  0  0  0  0  0
  2 10  1  0  0  0  0
  3  2  1  0  0  0  0
  4  1  1  0  0  0  0
  5  4  1  0  0  0  0
  6  1  2  0  0  0  0
  7  4  1  0  0  0  0
  8  1  1  0  0  0  0
  9  6  1  0  0  0  0
 10 12  1  0  0  0  0
 11 13  1  0  0  0  0
 12  5  1  0  0  0  0
 13  5  1  0  0  0  0
 14  3  2  0  0  0  0
 15 22  1  0  0  0  0
 16 23  2  0  0  0  0
 17  3  1  0  0  0  0
 18 16  1  0  0  0  0
 19  9  2  0  0  0  0
 20  6  1  0  0  0  0
 21  8  2  0  0  0  0
 22  7  2  0  0  0  0
 23  7  1  0  0  0  0
 24 19  1  0  0  0  0
 25 27  1  0  0  0  0
 26 17  1  0  0  0  0
 27 17  1  0  0  0  0
 21 19  1  0  0  0  0
  2 11  1  0  0  0  0
 18 15  2  0  0  0  0
 25 26  1  0  0  0  0
M  END
> <Molecule Name>
DNDI1538100

> <CDD Number>
CDD-1535728

> <IC50_uM>
0.4125 (n=1)

$$$$

SketchEl molfile

 31 34  0  0  0  0  0  0  0  0999 V2000
    5.7159   -8.7205    0.0000 C   0  0  0  0  0  0  0  0  0  0  0  0
    5.7147   -9.5478    0.0000 C   0  0  0  0  0  0  0  0  0  0  0  0
    6.4294   -9.9605    0.0000 C   0  0  0  0  0  0  0  0  0  0  0  0
    7.1458   -9.5473    0.0000 C   0  0  0  0  0  0  0  0  0  0  0  0
    7.1429   -8.7169    0.0000 C   0  0  0  0  0  0  0  0  0  0  0  0
    6.4276   -8.3077    0.0000 C   0  0  0  0  0  0  0  0  0  0  0  0
    7.8557   -8.3017    0.0000 C   0  0  0  0  0  0  0  0  0  0  0  0
    8.5717   -8.7115    0.0000 C   0  0  0  0  0  0  0  0  0  0  0  0
    7.8526   -7.4768    0.0000 N   0  0  0  0  0  0  0  0  0  0  0  0
    8.5655   -7.0617    0.0000 C   0  0  0  0  0  0  0  0  0  0  0  0
    8.5715   -9.5340    0.0000 C   0  0  0  0  0  0  0  0  0  0  0  0
    9.2866   -9.9436    0.0000 N   0  0  0  0  0  0  0  0  0  0  0  0
   10.0004   -9.5285    0.0000 C   0  0  0  0  0  0  0  0  0  0  0  0
    9.9946   -8.6994    0.0000 C   0  0  0  0  0  0  0  0  0  0  0  0
    9.2789   -8.2934    0.0000 C   0  0  0  0  0  0  0  0  0  0  0  0
    9.2765   -7.4743    0.0000 C   0  0  0  0  0  0  0  0  0  0  0  0
    9.9872   -7.0627    0.0000 C   0  0  0  0  0  0  0  0  0  0  0  0
    9.9884   -6.2374    0.0000 N   0  0  0  0  0  0  0  0  0  0  0  0
    9.2726   -5.8254    0.0000 C   0  0  0  0  0  0  0  0  0  0  0  0
    8.5557   -6.2388    0.0000 C   0  0  0  0  0  0  0  0  0  0  0  0
   10.7028   -5.8249    0.0000 C   0  0  0  0  0  0  0  0  0  0  0  0
   11.4171   -6.2375    0.0000 C   0  0  0  0  0  0  0  0  0  0  0  0
   10.7028   -5.0000    0.0000 O   0  0  0  0  0  0  0  0  0  0  0  0
   11.5078   -7.0567    0.0000 N   0  0  0  0  0  0  0  0  0  0  0  0
   12.3147   -7.2282    0.0000 C   0  0  0  0  0  0  0  0  0  0  0  0
   12.7271   -6.5138    0.0000 C   0  0  0  0  0  0  0  0  0  0  0  0
   12.1751   -5.9009    0.0000 S   0  0  0  0  0  0  0  0  0  0  0  0
    5.0000   -9.9596    0.0000 C   0  0  0  0  0  0  0  0  0  0  0  0
    4.2860   -9.5466    0.0000 F   0  0  0  0  0  0  0  0  0  0  0  0
    4.9994  -10.7845    0.0000 F   0  0  0  0  0  0  0  0  0  0  0  0
    4.7871   -9.1626    0.0000 F   0  0  0  0  0  0  0  0  0  0  0  0
  2 28  1  0  0  0  0
 28 29  1  0  0  0  0
 28 30  1  0  0  0  0
 28 31  1  0  0  0  0
 15  8  1  0  0  0  0
 10 16  1  0  0  0  0
  3  4  2  0  0  0  0
  7  8  1  0  0  0  0
  7  9  1  0  0  0  0
  4  5  1  0  0  0  0
 10 20  1  0  0  0  0
 16 17  1  0  0  0  0
 17 18  1  0  0  0  0
 18 19  1  0  0  0  0
 19 20  1  0  0  0  0
  9 10  1  0  0  0  0
 18 21  1  0  0  0  0
  2  3  1  0  0  0  0
 21 22  1  0  0  0  0
  8 11  2  0  0  0  0
 21 23  2  0  0  0  0
 22 24  2  0  0  0  0
  5  6  2  0  0  0  0
 11 12  1  0  0  0  0
  6  1  1  0  0  0  0
 12 13  2  0  0  0  0
 24 25  1  0  0  0  0
 25 26  2  0  0  0  0
 26 27  1  0  0  0  0
 27 22  1  0  0  0  0
  1  2  2  0  0  0  0
 13 14  1  0  0  0  0
  5  7  1  0  0  0  0
 14 15  2  0  0  0  0
M  END
> <Molecule Name>
DNDI1538101

> <CDD Number>
CDD-1535729

> <IC50_uM>
0.057 (n=1)

$$$$

SketchEl molfile

 33 36  0  0  0  0  0  0  0  0999 V2000
    5.7159   -8.7203    0.0000 C   0  0  0  0  0  0  0  0  0  0  0  0
    5.7147   -9.5476    0.0000 C   0  0  0  0  0  0  0  0  0  0  0  0
    6.4294   -9.9605    0.0000 C   0  0  0  0  0  0  0  0  0  0  0  0
    7.1459   -9.5471    0.0000 C   0  0  0  0  0  0  0  0  0  0  0  0
    7.1430   -8.7167    0.0000 C   0  0  0  0  0  0  0  0  0  0  0  0
    6.4276   -8.3077    0.0000 C   0  0  0  0  0  0  0  0  0  0  0  0
    7.8558   -8.3016    0.0000 C   0  0  0  0  0  0  0  0  0  0  0  0
    8.5717   -8.7113    0.0000 C   0  0  0  0  0  0  0  0  0  0  0  0
    7.8527   -7.4767    0.0000 N   0  0  0  0  0  0  0  0  0  0  0  0
    8.5655   -7.0615    0.0000 C   0  0  0  0  0  0  0  0  0  0  0  0
    8.5715   -9.5339    0.0000 C   0  0  0  0  0  0  0  0  0  0  0  0
    9.2866   -9.9436    0.0000 N   0  0  0  0  0  0  0  0  0  0  0  0
   10.0004   -9.5283    0.0000 C   0  0  0  0  0  0  0  0  0  0  0  0
    9.9946   -8.6992    0.0000 C   0  0  0  0  0  0  0  0  0  0  0  0
    9.2789   -8.2933    0.0000 C   0  0  0  0  0  0  0  0  0  0  0  0
    9.2765   -7.4742    0.0000 C   0  0  0  0  0  0  0  0  0  0  0  0
    9.9872   -7.0625    0.0000 C   0  0  0  0  0  0  0  0  0  0  0  0
    9.9884   -6.2373    0.0000 N   0  0  0  0  0  0  0  0  0  0  0  0
    9.2726   -5.8254    0.0000 C   0  0  0  0  0  0  0  0  0  0  0  0
    8.5557   -6.2386    0.0000 C   0  0  0  0  0  0  0  0  0  0  0  0
   10.7028   -5.8249    0.0000 C   0  0  0  0  0  0  0  0  0  0  0  0
   11.4172   -6.2373    0.0000 C   0  0  0  0  0  0  0  0  0  0  0  0
   10.7028   -5.0000    0.0000 O   0  0  0  0  0  0  0  0  0  0  0  0
   11.5079   -7.0566    0.0000 C   0  0  0  0  0  0  0  0  0  0  0  0
   12.3148   -7.2281    0.0000 N   0  0  0  0  0  0  0  0  0  0  0  0
   12.7272   -6.5137    0.0000 C   0  0  0  0  0  0  0  0  0  0  0  0
   12.1752   -5.9008    0.0000 S   0  0  0  0  0  0  0  0  0  0  0  0
   10.8963   -7.6103    0.0000 C   0  0  0  0  0  0  0  0  0  0  0  0
   13.5476   -6.4274    0.0000 C   0  0  0  0  0  0  0  0  0  0  0  0
    5.0000   -9.9595    0.0000 C   0  0  0  0  0  0  0  0  0  0  0  0
    4.2860   -9.5465    0.0000 F   0  0  0  0  0  0  0  0  0  0  0  0
    4.9994  -10.7844    0.0000 F   0  0  0  0  0  0  0  0  0  0  0  0
    4.7871   -9.1626    0.0000 F   0  0  0  0  0  0  0  0  0  0  0  0
  2 30  1  0  0  0  0
 30 31  1  0  0  0  0
 30 32  1  0  0  0  0
 30 33  1  0  0  0  0
  3  4  2  0  0  0  0
  7  8  1  0  0  0  0
  7  9  1  0  0  0  0
  4  5  1  0  0  0  0
 10 20  1  0  0  0  0
 16 17  1  0  0  0  0
 17 18  1  0  0  0  0
 18 19  1  0  0  0  0
 19 20  1  0  0  0  0
  9 10  1  0  0  0  0
 18 21  1  0  0  0  0
  2  3  1  0  0  0  0
 21 22  1  0  0  0  0
  8 11  2  0  0  0  0
 21 23  2  0  0  0  0
 22 24  2  0  0  0  0
  5  6  2  0  0  0  0
 11 12  1  0  0  0  0
  6  1  1  0  0  0  0
 12 13  2  0  0  0  0
 24 25  1  0  0  0  0
 25 26  2  0  0  0  0
 26 27  1  0  0  0  0
 27 22  1  0  0  0  0
  1  2  2  0  0  0  0
 24 28  1  0  0  0  0
 13 14  1  0  0  0  0
 26 29  1  0  0  0  0
  5  7  1  0  0  0  0
 14 15  2  0  0  0  0
 15  8  1  0  0  0  0
 10 16  1  0  0  0  0
M  END
> <Molecule Name>
DNDI1538102

> <CDD Number>
CDD-1535730

> <IC50_uM>
0.2155 (n=1)

$$$$

SketchEl molfile

 32 35  0  0  0  0  0  0  0  0999 V2000
    5.7159   -8.7203    0.0000 C   0  0  0  0  0  0  0  0  0  0  0  0
    5.7147   -9.5476    0.0000 C   0  0  0  0  0  0  0  0  0  0  0  0
    6.4294   -9.9605    0.0000 C   0  0  0  0  0  0  0  0  0  0  0  0
    7.1458   -9.5471    0.0000 C   0  0  0  0  0  0  0  0  0  0  0  0
    7.1430   -8.7167    0.0000 C   0  0  0  0  0  0  0  0  0  0  0  0
    6.4276   -8.3077    0.0000 C   0  0  0  0  0  0  0  0  0  0  0  0
    7.8558   -8.3016    0.0000 C   0  0  0  0  0  0  0  0  0  0  0  0
    8.5717   -8.7113    0.0000 C   0  0  0  0  0  0  0  0  0  0  0  0
    7.8527   -7.4767    0.0000 N   0  0  0  0  0  0  0  0  0  0  0  0
    8.5655   -7.0615    0.0000 C   0  0  0  0  0  0  0  0  0  0  0  0
    8.5715   -9.5339    0.0000 C   0  0  0  0  0  0  0  0  0  0  0  0
    9.2866   -9.9436    0.0000 N   0  0  0  0  0  0  0  0  0  0  0  0
   10.0004   -9.5283    0.0000 C   0  0  0  0  0  0  0  0  0  0  0  0
    9.9946   -8.6992    0.0000 C   0  0  0  0  0  0  0  0  0  0  0  0
    9.2789   -8.2933    0.0000 C   0  0  0  0  0  0  0  0  0  0  0  0
    9.2765   -7.4742    0.0000 C   0  0  0  0  0  0  0  0  0  0  0  0
    9.9872   -7.0625    0.0000 C   0  0  0  0  0  0  0  0  0  0  0  0
    9.9884   -6.2373    0.0000 N   0  0  0  0  0  0  0  0  0  0  0  0
    9.2726   -5.8254    0.0000 C   0  0  0  0  0  0  0  0  0  0  0  0
    8.5557   -6.2386    0.0000 C   0  0  0  0  0  0  0  0  0  0  0  0
   10.7028   -5.8249    0.0000 C   0  0  0  0  0  0  0  0  0  0  0  0
   11.4172   -6.2373    0.0000 C   0  0  0  0  0  0  0  0  0  0  0  0
   10.7028   -5.0000    0.0000 O   0  0  0  0  0  0  0  0  0  0  0  0
   11.5078   -7.0566    0.0000 C   0  0  0  0  0  0  0  0  0  0  0  0
   12.3147   -7.2281    0.0000 O   0  0  0  0  0  0  0  0  0  0  0  0
   12.7272   -6.5137    0.0000 N   0  0  0  0  0  0  0  0  0  0  0  0
   12.1752   -5.9008    0.0000 C   0  0  0  0  0  0  0  0  0  0  0  0
   10.8963   -7.6103    0.0000 C   0  0  0  0  0  0  0  0  0  0  0  0
    5.0000   -9.9595    0.0000 C   0  0  0  0  0  0  0  0  0  0  0  0
    4.2860   -9.5465    0.0000 F   0  0  0  0  0  0  0  0  0  0  0  0
    4.9994  -10.7844    0.0000 F   0  0  0  0  0  0  0  0  0  0  0  0
    4.7871   -9.1626    0.0000 F   0  0  0  0  0  0  0  0  0  0  0  0
  2 29  1  0  0  0  0
 29 30  1  0  0  0  0
 29 31  1  0  0  0  0
 29 32  1  0  0  0  0
 10 16  1  0  0  0  0
  3  4  2  0  0  0  0
  7  8  1  0  0  0  0
  7  9  1  0  0  0  0
  4  5  1  0  0  0  0
 10 20  1  0  0  0  0
 16 17  1  0  0  0  0
 17 18  1  0  0  0  0
 18 19  1  0  0  0  0
 19 20  1  0  0  0  0
  9 10  1  0  0  0  0
 18 21  1  0  0  0  0
  2  3  1  0  0  0  0
 21 22  1  0  0  0  0
  8 11  2  0  0  0  0
 21 23  2  0  0  0  0
 22 24  2  0  0  0  0
  5  6  2  0  0  0  0
 11 12  1  0  0  0  0
  6  1  1  0  0  0  0
 12 13  2  0  0  0  0
 24 25  1  0  0  0  0
 25 26  1  0  0  0  0
 26 27  2  0  0  0  0
 27 22  1  0  0  0  0
  1  2  2  0  0  0  0
 24 28  1  0  0  0  0
 13 14  1  0  0  0  0
  5  7  1  0  0  0  0
 14 15  2  0  0  0  0
 15  8  1  0  0  0  0
M  END
> <Molecule Name>
DNDI1538103

> <CDD Number>
CDD-1535731

> <IC50_uM>
0.0695 (n=1)

$$$$

SketchEl molfile

 29 32  0  0  0  0  0  0  0  0999 V2000
   10.0013   -6.2379    0.0000 C   0  0  0  0  0  0  0  0  0  0  0  0
    9.2844   -5.8253    0.0000 C   0  0  0  0  0  0  0  0  0  0  0  0
    8.5718   -8.7093    0.0000 N   0  0  0  0  0  0  0  0  0  0  0  0
   10.8890   -7.2298    0.0000 N   0  0  0  0  0  0  0  0  0  0  0  0
   10.0847   -7.0589    0.0000 O   0  0  0  0  0  0  0  0  0  0  0  0
    8.5718   -6.2379    0.0000 N   0  0  0  0  0  0  0  0  0  0  0  0
    5.0000  -11.5976    0.0000 N   0  0  0  0  0  0  0  0  0  0  0  0
    8.5759   -9.5346    0.0000 C   0  0  0  0  0  0  0  0  0  0  0  0
   10.7515   -5.9003    0.0000 C   0  0  0  0  0  0  0  0  0  0  0  0
    5.7169  -11.1933    0.0000 C   0  0  0  0  0  0  0  0  0  0  0  0
    9.2928   -9.9430    0.0000 C   0  0  0  0  0  0  0  0  0  0  0  0
    7.8632   -9.9513    0.0000 C   0  0  0  0  0  0  0  0  0  0  0  0
    9.2844   -8.2967    0.0000 C   0  0  0  0  0  0  0  0  0  0  0  0
    7.8549   -8.3051    0.0000 C   0  0  0  0  0  0  0  0  0  0  0  0
    9.2844   -5.0000    0.0000 O   0  0  0  0  0  0  0  0  0  0  0  0
   11.3016   -6.5129    0.0000 C   0  0  0  0  0  0  0  0  0  0  0  0
   10.0055  -11.1767    0.0000 N   0  0  0  0  0  0  0  0  0  0  0  0
    8.5718   -7.0631    0.0000 C   0  0  0  0  0  0  0  0  0  0  0  0
    7.8549   -7.4757    0.0000 C   0  0  0  0  0  0  0  0  0  0  0  0
    9.2844   -7.4757    0.0000 C   0  0  0  0  0  0  0  0  0  0  0  0
    7.1464   -9.5387    0.0000 C   0  0  0  0  0  0  0  0  0  0  0  0
    7.8632  -10.7807    0.0000 C   0  0  0  0  0  0  0  0  0  0  0  0
    6.4337  -10.7807    0.0000 C   0  0  0  0  0  0  0  0  0  0  0  0
    6.4337   -9.9555    0.0000 C   0  0  0  0  0  0  0  0  0  0  0  0
    7.1464  -11.1933    0.0000 C   0  0  0  0  0  0  0  0  0  0  0  0
    9.2928  -10.7682    0.0000 C   0  0  0  0  0  0  0  0  0  0  0  0
    9.9971   -9.5262    0.0000 C   0  0  0  0  0  0  0  0  0  0  0  0
   10.7223  -10.7599    0.0000 C   0  0  0  0  0  0  0  0  0  0  0  0
   10.7140   -9.9305    0.0000 C   0  0  0  0  0  0  0  0  0  0  0  0
  2  1  1  0  0  0  0
  3 14  1  0  0  0  0
  4  5  1  0  0  0  0
  5  1  1  0  0  0  0
  6  2  1  0  0  0  0
  7 10  3  0  0  0  0
  8  3  1  0  0  0  0
  9  1  2  0  0  0  0
 10 23  1  0  0  0  0
 11  8  1  0  0  0  0
 12  8  1  0  0  0  0
 13 20  1  0  0  0  0
 14 19  1  0  0  0  0
 15  2  2  0  0  0  0
 16  9  1  0  0  0  0
 17 26  1  0  0  0  0
 18  6  1  0  0  0  0
 19 18  1  0  0  0  0
 20 18  1  0  0  0  0
 21 12  2  0  0  0  0
 22 12  1  0  0  0  0
 23 24  2  0  0  0  0
 24 21  1  0  0  0  0
 25 22  2  0  0  0  0
 26 11  2  0  0  0  0
 27 11  1  0  0  0  0
 28 17  2  0  0  0  0
 29 27  2  0  0  0  0
 16  4  2  0  0  0  0
 13  3  1  0  0  0  0
 29 28  1  0  0  0  0
 25 23  1  0  0  0  0
M  END
> <Molecule Name>
DNDI1538104

> <CDD Number>
CDD-1535732

> <IC50_uM>
0.2195 (n=1)

$$$$

SketchEl molfile

 30 33  0  0  0  0  0  0  0  0999 V2000
   10.0005   -6.2377    0.0000 C   0  0  0  0  0  0  0  0  0  0  0  0
    9.2838   -5.8251    0.0000 C   0  0  0  0  0  0  0  0  0  0  0  0
   10.0838   -7.0586    0.0000 O   0  0  0  0  0  0  0  0  0  0  0  0
   10.7506   -5.9001    0.0000 C   0  0  0  0  0  0  0  0  0  0  0  0
   10.8881   -7.2294    0.0000 N   0  0  0  0  0  0  0  0  0  0  0  0
    8.5712   -8.7087    0.0000 N   0  0  0  0  0  0  0  0  0  0  0  0
    8.5712   -6.2377    0.0000 N   0  0  0  0  0  0  0  0  0  0  0  0
    5.0000  -11.6007    0.0000 N   0  0  0  0  0  0  0  0  0  0  0  0
    8.5754   -9.5338    0.0000 C   0  0  0  0  0  0  0  0  0  0  0  0
   11.3006   -6.5127    0.0000 C   0  0  0  0  0  0  0  0  0  0  0  0
    5.7167  -11.1923    0.0000 C   0  0  0  0  0  0  0  0  0  0  0  0
    9.2921   -9.9422    0.0000 C   0  0  0  0  0  0  0  0  0  0  0  0
    7.8628   -9.9505    0.0000 C   0  0  0  0  0  0  0  0  0  0  0  0
    7.8544   -8.3045    0.0000 C   0  0  0  0  0  0  0  0  0  0  0  0
    9.2838   -8.2962    0.0000 C   0  0  0  0  0  0  0  0  0  0  0  0
    9.2838   -5.0000    0.0000 O   0  0  0  0  0  0  0  0  0  0  0  0
   10.0047  -11.1757    0.0000 N   0  0  0  0  0  0  0  0  0  0  0  0
    8.5712   -7.0628    0.0000 C   0  0  0  0  0  0  0  0  0  0  0  0
    7.8544   -7.4753    0.0000 C   0  0  0  0  0  0  0  0  0  0  0  0
    9.2838   -7.4753    0.0000 C   0  0  0  0  0  0  0  0  0  0  0  0
    7.1460   -9.5380    0.0000 C   0  0  0  0  0  0  0  0  0  0  0  0
    7.8628  -10.7798    0.0000 C   0  0  0  0  0  0  0  0  0  0  0  0
    6.4335  -10.7798    0.0000 C   0  0  0  0  0  0  0  0  0  0  0  0
    6.4335   -9.9505    0.0000 C   0  0  0  0  0  0  0  0  0  0  0  0
    7.1460  -11.1923    0.0000 C   0  0  0  0  0  0  0  0  0  0  0  0
    9.2921  -10.7673    0.0000 C   0  0  0  0  0  0  0  0  0  0  0  0
    9.9963   -9.5255    0.0000 C   0  0  0  0  0  0  0  0  0  0  0  0
   10.7214  -10.7589    0.0000 C   0  0  0  0  0  0  0  0  0  0  0  0
   12.1215   -6.4294    0.0000 C   0  0  0  0  0  0  0  0  0  0  0  0
   10.7131   -9.9297    0.0000 C   0  0  0  0  0  0  0  0  0  0  0  0
  2  1  1  0  0  0  0
  3  1  1  0  0  0  0
  4  1  2  0  0  0  0
  5  3  1  0  0  0  0
  6 14  1  0  0  0  0
  7  2  1  0  0  0  0
  8 11  3  0  0  0  0
  9  6  1  0  0  0  0
 10  4  1  0  0  0  0
 11 23  1  0  0  0  0
 12  9  1  0  0  0  0
 13  9  1  0  0  0  0
 14 19  1  0  0  0  0
 15 20  1  0  0  0  0
 16  2  2  0  0  0  0
 17 26  1  0  0  0  0
 18  7  1  0  0  0  0
 19 18  1  0  0  0  0
 20 18  1  0  0  0  0
 21 13  2  0  0  0  0
 22 13  1  0  0  0  0
 23 24  2  0  0  0  0
 24 21  1  0  0  0  0
 25 22  2  0  0  0  0
 26 12  2  0  0  0  0
 27 12  1  0  0  0  0
 28 30  1  0  0  0  0
 29 10  1  0  0  0  0
 30 27  2  0  0  0  0
 10  5  2  0  0  0  0
 15  6  1  0  0  0  0
 25 23  1  0  0  0  0
 28 17  2  0  0  0  0
M  END
> <Molecule Name>
DNDI1538105

> <CDD Number>
CDD-1535733

> <IC50_uM>
0.1965 (n=1)

$$$$

SketchEl molfile

 32 35  0  0  0  0  0  0  0  0999 V2000
    5.7160   -8.7210    0.0000 C   0  0  0  0  0  0  0  0  0  0  0  0
    5.7148   -9.5485    0.0000 C   0  0  0  0  0  0  0  0  0  0  0  0
    6.4297   -9.9613    0.0000 C   0  0  0  0  0  0  0  0  0  0  0  0
    7.1462   -9.5480    0.0000 C   0  0  0  0  0  0  0  0  0  0  0  0
    7.1433   -8.7174    0.0000 C   0  0  0  0  0  0  0  0  0  0  0  0
    6.4279   -8.3082    0.0000 C   0  0  0  0  0  0  0  0  0  0  0  0
    7.8563   -8.3022    0.0000 C   0  0  0  0  0  0  0  0  0  0  0  0
    8.5723   -8.7120    0.0000 C   0  0  0  0  0  0  0  0  0  0  0  0
    7.8531   -7.4772    0.0000 N   0  0  0  0  0  0  0  0  0  0  0  0
    8.5661   -7.0620    0.0000 C   0  0  0  0  0  0  0  0  0  0  0  0
    8.5720   -9.5347    0.0000 C   0  0  0  0  0  0  0  0  0  0  0  0
    9.2872   -9.9444    0.0000 N   0  0  0  0  0  0  0  0  0  0  0  0
   10.0011   -9.5292    0.0000 C   0  0  0  0  0  0  0  0  0  0  0  0
    9.9953   -8.6999    0.0000 C   0  0  0  0  0  0  0  0  0  0  0  0
    9.2796   -8.2939    0.0000 C   0  0  0  0  0  0  0  0  0  0  0  0
    9.2772   -7.4747    0.0000 C   0  0  0  0  0  0  0  0  0  0  0  0
    9.9880   -7.0630    0.0000 C   0  0  0  0  0  0  0  0  0  0  0  0
    9.9891   -6.2376    0.0000 N   0  0  0  0  0  0  0  0  0  0  0  0
    9.2732   -5.8256    0.0000 C   0  0  0  0  0  0  0  0  0  0  0  0
    8.5562   -6.2390    0.0000 C   0  0  0  0  0  0  0  0  0  0  0  0
   10.7037   -5.8251    0.0000 C   0  0  0  0  0  0  0  0  0  0  0  0
   11.4182   -6.2377    0.0000 C   0  0  0  0  0  0  0  0  0  0  0  0
   10.7037   -5.0000    0.0000 O   0  0  0  0  0  0  0  0  0  0  0  0
   11.5043   -7.0575    0.0000 C   0  0  0  0  0  0  0  0  0  0  0  0
   12.3112   -7.2291    0.0000 O   0  0  0  0  0  0  0  0  0  0  0  0
   12.7238   -6.5145    0.0000 C   0  0  0  0  0  0  0  0  0  0  0  0
   12.1717   -5.9015    0.0000 N   0  0  0  0  0  0  0  0  0  0  0  0
   13.5442   -6.4282    0.0000 C   0  0  0  0  0  0  0  0  0  0  0  0
    5.0000   -9.9604    0.0000 C   0  0  0  0  0  0  0  0  0  0  0  0
    4.2859   -9.5473    0.0000 F   0  0  0  0  0  0  0  0  0  0  0  0
    4.9994  -10.7854    0.0000 F   0  0  0  0  0  0  0  0  0  0  0  0
    4.7872   -9.1633    0.0000 F   0  0  0  0  0  0  0  0  0  0  0  0
  2 29  1  0  0  0  0
 29 30  1  0  0  0  0
 29 31  1  0  0  0  0
 29 32  1  0  0  0  0
 10 16  1  0  0  0  0
  3  4  2  0  0  0  0
  7  8  1  0  0  0  0
  7  9  1  0  0  0  0
  4  5  1  0  0  0  0
 10 20  1  0  0  0  0
 16 17  1  0  0  0  0
 17 18  1  0  0  0  0
 18 19  1  0  0  0  0
 19 20  1  0  0  0  0
  9 10  1  0  0  0  0
 18 21  1  0  0  0  0
  2  3  1  0  0  0  0
 21 22  1  0  0  0  0
  8 11  2  0  0  0  0
 21 23  2  0  0  0  0
 22 24  2  0  0  0  0
  5  6  2  0  0  0  0
 11 12  1  0  0  0  0
  6  1  1  0  0  0  0
 12 13  2  0  0  0  0
 24 25  1  0  0  0  0
 25 26  1  0  0  0  0
 26 27  2  0  0  0  0
 27 22  1  0  0  0  0
  1  2  2  0  0  0  0
 26 28  1  0  0  0  0
 13 14  1  0  0  0  0
  5  7  1  0  0  0  0
 14 15  2  0  0  0  0
 15  8  1  0  0  0  0
M  END
> <Molecule Name>
DNDI1538106

> <CDD Number>
CDD-1535734

> <IC50_uM>
0.5905 (n=1)

$$$$

SketchEl molfile

 33 36  0  0  0  0  0  0  0  0999 V2000
    5.7158   -8.7203    0.0000 C   0  0  0  0  0  0  0  0  0  0  0  0
    5.7147   -9.5476    0.0000 C   0  0  0  0  0  0  0  0  0  0  0  0
    6.4294   -9.9605    0.0000 C   0  0  0  0  0  0  0  0  0  0  0  0
    7.1458   -9.5471    0.0000 C   0  0  0  0  0  0  0  0  0  0  0  0
    7.1430   -8.7167    0.0000 C   0  0  0  0  0  0  0  0  0  0  0  0
    6.4276   -8.3077    0.0000 C   0  0  0  0  0  0  0  0  0  0  0  0
    7.8558   -8.3016    0.0000 C   0  0  0  0  0  0  0  0  0  0  0  0
    8.5717   -8.7113    0.0000 C   0  0  0  0  0  0  0  0  0  0  0  0
    7.8527   -7.4767    0.0000 N   0  0  0  0  0  0  0  0  0  0  0  0
    8.5655   -7.0615    0.0000 C   0  0  0  0  0  0  0  0  0  0  0  0
    8.5715   -9.5339    0.0000 C   0  0  0  0  0  0  0  0  0  0  0  0
    9.2865   -9.9436    0.0000 N   0  0  0  0  0  0  0  0  0  0  0  0
   10.0003   -9.5283    0.0000 C   0  0  0  0  0  0  0  0  0  0  0  0
    9.9946   -8.6992    0.0000 C   0  0  0  0  0  0  0  0  0  0  0  0
    9.2789   -8.2933    0.0000 C   0  0  0  0  0  0  0  0  0  0  0  0
    9.2765   -7.4742    0.0000 C   0  0  0  0  0  0  0  0  0  0  0  0
    9.9872   -7.0625    0.0000 C   0  0  0  0  0  0  0  0  0  0  0  0
    9.9884   -6.2373    0.0000 N   0  0  0  0  0  0  0  0  0  0  0  0
    9.2726   -5.8254    0.0000 C   0  0  0  0  0  0  0  0  0  0  0  0
    8.5557   -6.2386    0.0000 C   0  0  0  0  0  0  0  0  0  0  0  0
   10.7028   -5.8249    0.0000 C   0  0  0  0  0  0  0  0  0  0  0  0
   11.4172   -6.2373    0.0000 C   0  0  0  0  0  0  0  0  0  0  0  0
   10.7028   -5.0000    0.0000 O   0  0  0  0  0  0  0  0  0  0  0  0
   11.5079   -7.0566    0.0000 C   0  0  0  0  0  0  0  0  0  0  0  0
   12.3147   -7.2281    0.0000 C   0  0  0  0  0  0  0  0  0  0  0  0
   12.7272   -6.5137    0.0000 N   0  0  0  0  0  0  0  0  0  0  0  0
   12.1752   -5.9007    0.0000 N   0  0  0  0  0  0  0  0  0  0  0  0
   12.6502   -7.9817    0.0000 C   0  0  0  0  0  0  0  0  0  0  0  0
   12.3470   -5.0939    0.0000 C   0  0  0  0  0  0  0  0  0  0  0  0
    5.0000   -9.9595    0.0000 C   0  0  0  0  0  0  0  0  0  0  0  0
    4.2859   -9.5465    0.0000 F   0  0  0  0  0  0  0  0  0  0  0  0
    4.9993  -10.7844    0.0000 F   0  0  0  0  0  0  0  0  0  0  0  0
    4.7871   -9.1626    0.0000 F   0  0  0  0  0  0  0  0  0  0  0  0
  2 30  1  0  0  0  0
 30 31  1  0  0  0  0
 30 32  1  0  0  0  0
 30 33  1  0  0  0  0
  3  4  2  0  0  0  0
  7  8  1  0  0  0  0
  7  9  1  0  0  0  0
  4  5  1  0  0  0  0
 10 20  1  0  0  0  0
 16 17  1  0  0  0  0
 17 18  1  0  0  0  0
 18 19  1  0  0  0  0
 19 20  1  0  0  0  0
  9 10  1  0  0  0  0
 18 21  1  0  0  0  0
  2  3  1  0  0  0  0
 21 22  1  0  0  0  0
  8 11  2  0  0  0  0
 21 23  2  0  0  0  0
 22 24  2  0  0  0  0
  5  6  2  0  0  0  0
 11 12  1  0  0  0  0
  6  1  1  0  0  0  0
 12 13  2  0  0  0  0
 24 25  1  0  0  0  0
 25 26  2  0  0  0  0
 26 27  1  0  0  0  0
 27 22  1  0  0  0  0
  1  2  2  0  0  0  0
 25 28  1  0  0  0  0
 13 14  1  0  0  0  0
 27 29  1  0  0  0  0
  5  7  1  0  0  0  0
 14 15  2  0  0  0  0
 15  8  1  0  0  0  0
 10 16  1  0  0  0  0
M  END
> <Molecule Name>
DNDI1538107

> <CDD Number>
CDD-1535735

> <IC50_uM>
0.2635 (n=1)

$$$$

SketchEl molfile

 32 35  0  0  0  0  0  0  0  0999 V2000
    5.7159   -8.7209    0.0000 C   0  0  0  0  0  0  0  0  0  0  0  0
    5.7148   -9.5484    0.0000 C   0  0  0  0  0  0  0  0  0  0  0  0
    6.4297   -9.9613    0.0000 C   0  0  0  0  0  0  0  0  0  0  0  0
    7.1461   -9.5479    0.0000 C   0  0  0  0  0  0  0  0  0  0  0  0
    7.1433   -8.7173    0.0000 C   0  0  0  0  0  0  0  0  0  0  0  0
    6.4279   -8.3082    0.0000 C   0  0  0  0  0  0  0  0  0  0  0  0
    7.8562   -8.3021    0.0000 C   0  0  0  0  0  0  0  0  0  0  0  0
    8.5722   -8.7119    0.0000 C   0  0  0  0  0  0  0  0  0  0  0  0
    7.8531   -7.4771    0.0000 N   0  0  0  0  0  0  0  0  0  0  0  0
    8.5660   -7.0619    0.0000 C   0  0  0  0  0  0  0  0  0  0  0  0
    8.5720   -9.5347    0.0000 C   0  0  0  0  0  0  0  0  0  0  0  0
    9.2872   -9.9444    0.0000 N   0  0  0  0  0  0  0  0  0  0  0  0
   10.0011   -9.5291    0.0000 C   0  0  0  0  0  0  0  0  0  0  0  0
    9.9954   -8.6998    0.0000 C   0  0  0  0  0  0  0  0  0  0  0  0
    9.2796   -8.2938    0.0000 C   0  0  0  0  0  0  0  0  0  0  0  0
    9.2772   -7.4746    0.0000 C   0  0  0  0  0  0  0  0  0  0  0  0
    9.9880   -7.0629    0.0000 C   0  0  0  0  0  0  0  0  0  0  0  0
    9.9892   -6.2375    0.0000 N   0  0  0  0  0  0  0  0  0  0  0  0
    9.2733   -5.8255    0.0000 C   0  0  0  0  0  0  0  0  0  0  0  0
    8.5562   -6.2388    0.0000 C   0  0  0  0  0  0  0  0  0  0  0  0
   10.7036   -5.8250    0.0000 C   0  0  0  0  0  0  0  0  0  0  0  0
   11.4181   -6.2375    0.0000 C   0  0  0  0  0  0  0  0  0  0  0  0
   10.7036   -5.0000    0.0000 O   0  0  0  0  0  0  0  0  0  0  0  0
   11.5042   -7.0574    0.0000 C   0  0  0  0  0  0  0  0  0  0  0  0
   12.3113   -7.2290    0.0000 S   0  0  0  0  0  0  0  0  0  0  0  0
   12.7238   -6.5144    0.0000 C   0  0  0  0  0  0  0  0  0  0  0  0
   12.1717   -5.9014    0.0000 N   0  0  0  0  0  0  0  0  0  0  0  0
   13.5443   -6.4281    0.0000 C   0  0  0  0  0  0  0  0  0  0  0  0
    5.0000   -9.9603    0.0000 C   0  0  0  0  0  0  0  0  0  0  0  0
    4.2858   -9.5473    0.0000 F   0  0  0  0  0  0  0  0  0  0  0  0
    4.9993  -10.7853    0.0000 F   0  0  0  0  0  0  0  0  0  0  0  0
    4.7871   -9.1632    0.0000 F   0  0  0  0  0  0  0  0  0  0  0  0
  2 29  1  0  0  0  0
 29 30  1  0  0  0  0
 29 31  1  0  0  0  0
 29 32  1  0  0  0  0
 10 16  1  0  0  0  0
  3  4  2  0  0  0  0
  7  8  1  0  0  0  0
  7  9  1  0  0  0  0
  4  5  1  0  0  0  0
 10 20  1  0  0  0  0
 16 17  1  0  0  0  0
 17 18  1  0  0  0  0
 18 19  1  0  0  0  0
 19 20  1  0  0  0  0
  9 10  1  0  0  0  0
 18 21  1  0  0  0  0
  2  3  1  0  0  0  0
 21 22  1  0  0  0  0
  8 11  2  0  0  0  0
 21 23  2  0  0  0  0
 22 24  2  0  0  0  0
  5  6  2  0  0  0  0
 11 12  1  0  0  0  0
  6  1  1  0  0  0  0
 12 13  2  0  0  0  0
 24 25  1  0  0  0  0
 25 26  1  0  0  0  0
 26 27  2  0  0  0  0
 27 22  1  0  0  0  0
  1  2  2  0  0  0  0
 26 28  1  0  0  0  0
 13 14  1  0  0  0  0
  5  7  1  0  0  0  0
 14 15  2  0  0  0  0
 15  8  1  0  0  0  0
M  END
> <Molecule Name>
DNDI1538108

> <CDD Number>
CDD-1535736

> <IC50_uM>
0.3265 (n=1)

$$$$

SketchEl molfile

 32 35  0  0  0  0  0  0  0  0999 V2000
    5.7158   -8.7203    0.0000 C   0  0  0  0  0  0  0  0  0  0  0  0
    5.7147   -9.5476    0.0000 C   0  0  0  0  0  0  0  0  0  0  0  0
    6.4294   -9.9605    0.0000 C   0  0  0  0  0  0  0  0  0  0  0  0
    7.1458   -9.5471    0.0000 C   0  0  0  0  0  0  0  0  0  0  0  0
    7.1430   -8.7167    0.0000 C   0  0  0  0  0  0  0  0  0  0  0  0
    6.4276   -8.3077    0.0000 C   0  0  0  0  0  0  0  0  0  0  0  0
    7.8558   -8.3016    0.0000 C   0  0  0  0  0  0  0  0  0  0  0  0
    8.5717   -8.7113    0.0000 C   0  0  0  0  0  0  0  0  0  0  0  0
    7.8527   -7.4767    0.0000 N   0  0  0  0  0  0  0  0  0  0  0  0
    8.5655   -7.0615    0.0000 C   0  0  0  0  0  0  0  0  0  0  0  0
    8.5715   -9.5339    0.0000 C   0  0  0  0  0  0  0  0  0  0  0  0
    9.2865   -9.9436    0.0000 N   0  0  0  0  0  0  0  0  0  0  0  0
   10.0003   -9.5283    0.0000 C   0  0  0  0  0  0  0  0  0  0  0  0
    9.9946   -8.6992    0.0000 C   0  0  0  0  0  0  0  0  0  0  0  0
    9.2789   -8.2933    0.0000 C   0  0  0  0  0  0  0  0  0  0  0  0
    9.2765   -7.4742    0.0000 C   0  0  0  0  0  0  0  0  0  0  0  0
    9.9872   -7.0625    0.0000 C   0  0  0  0  0  0  0  0  0  0  0  0
    9.9884   -6.2373    0.0000 N   0  0  0  0  0  0  0  0  0  0  0  0
    9.2726   -5.8254    0.0000 C   0  0  0  0  0  0  0  0  0  0  0  0
    8.5557   -6.2386    0.0000 C   0  0  0  0  0  0  0  0  0  0  0  0
   10.7027   -5.8249    0.0000 C   0  0  0  0  0  0  0  0  0  0  0  0
   11.4172   -6.2373    0.0000 C   0  0  0  0  0  0  0  0  0  0  0  0
   10.7027   -5.0000    0.0000 O   0  0  0  0  0  0  0  0  0  0  0  0
   11.5079   -7.0566    0.0000 C   0  0  0  0  0  0  0  0  0  0  0  0
   12.3147   -7.2281    0.0000 O   0  0  0  0  0  0  0  0  0  0  0  0
   12.7272   -6.5137    0.0000 N   0  0  0  0  0  0  0  0  0  0  0  0
   12.1752   -5.9008    0.0000 C   0  0  0  0  0  0  0  0  0  0  0  0
   12.3470   -5.0940    0.0000 C   0  0  0  0  0  0  0  0  0  0  0  0
    5.0000   -9.9595    0.0000 C   0  0  0  0  0  0  0  0  0  0  0  0
    4.2859   -9.5465    0.0000 F   0  0  0  0  0  0  0  0  0  0  0  0
    4.9993  -10.7844    0.0000 F   0  0  0  0  0  0  0  0  0  0  0  0
    4.7871   -9.1626    0.0000 F   0  0  0  0  0  0  0  0  0  0  0  0
  2 29  1  0  0  0  0
 29 30  1  0  0  0  0
 29 31  1  0  0  0  0
 29 32  1  0  0  0  0
 10 16  1  0  0  0  0
  3  4  2  0  0  0  0
  7  8  1  0  0  0  0
  7  9  1  0  0  0  0
  4  5  1  0  0  0  0
 10 20  1  0  0  0  0
 16 17  1  0  0  0  0
 17 18  1  0  0  0  0
 18 19  1  0  0  0  0
 19 20  1  0  0  0  0
  9 10  1  0  0  0  0
 18 21  1  0  0  0  0
  2  3  1  0  0  0  0
 21 22  1  0  0  0  0
  8 11  2  0  0  0  0
 21 23  2  0  0  0  0
 22 24  2  0  0  0  0
  5  6  2  0  0  0  0
 11 12  1  0  0  0  0
  6  1  1  0  0  0  0
 12 13  2  0  0  0  0
 24 25  1  0  0  0  0
 25 26  1  0  0  0  0
 26 27  2  0  0  0  0
 27 22  1  0  0  0  0
  1  2  2  0  0  0  0
 27 28  1  0  0  0  0
 13 14  1  0  0  0  0
  5  7  1  0  0  0  0
 14 15  2  0  0  0  0
 15  8  1  0  0  0  0
M  END
> <Molecule Name>
DNDI1538109

> <CDD Number>
CDD-1535737

> <IC50_uM>
0.1645 (n=1)

$$$$

SketchEl molfile

 32 35  0  0  0  0  0  0  0  0999 V2000
    5.7158   -8.7203    0.0000 C   0  0  0  0  0  0  0  0  0  0  0  0
    5.7147   -9.5476    0.0000 C   0  0  0  0  0  0  0  0  0  0  0  0
    6.4294   -9.9605    0.0000 C   0  0  0  0  0  0  0  0  0  0  0  0
    7.1458   -9.5471    0.0000 C   0  0  0  0  0  0  0  0  0  0  0  0
    7.1430   -8.7167    0.0000 C   0  0  0  0  0  0  0  0  0  0  0  0
    6.4276   -8.3077    0.0000 C   0  0  0  0  0  0  0  0  0  0  0  0
    7.8558   -8.3016    0.0000 C   0  0  0  0  0  0  0  0  0  0  0  0
    8.5717   -8.7113    0.0000 C   0  0  0  0  0  0  0  0  0  0  0  0
    7.8527   -7.4767    0.0000 N   0  0  0  0  0  0  0  0  0  0  0  0
    8.5655   -7.0615    0.0000 C   0  0  0  0  0  0  0  0  0  0  0  0
    8.5715   -9.5339    0.0000 C   0  0  0  0  0  0  0  0  0  0  0  0
    9.2865   -9.9436    0.0000 N   0  0  0  0  0  0  0  0  0  0  0  0
   10.0003   -9.5283    0.0000 C   0  0  0  0  0  0  0  0  0  0  0  0
    9.9946   -8.6992    0.0000 C   0  0  0  0  0  0  0  0  0  0  0  0
    9.2789   -8.2933    0.0000 C   0  0  0  0  0  0  0  0  0  0  0  0
    9.2765   -7.4742    0.0000 C   0  0  0  0  0  0  0  0  0  0  0  0
    9.9872   -7.0625    0.0000 C   0  0  0  0  0  0  0  0  0  0  0  0
    9.9884   -6.2373    0.0000 N   0  0  0  0  0  0  0  0  0  0  0  0
    9.2726   -5.8254    0.0000 C   0  0  0  0  0  0  0  0  0  0  0  0
    8.5557   -6.2386    0.0000 C   0  0  0  0  0  0  0  0  0  0  0  0
   10.7027   -5.8249    0.0000 C   0  0  0  0  0  0  0  0  0  0  0  0
   11.4172   -6.2373    0.0000 C   0  0  0  0  0  0  0  0  0  0  0  0
   10.7027   -5.0000    0.0000 O   0  0  0  0  0  0  0  0  0  0  0  0
   11.5078   -7.0566    0.0000 C   0  0  0  0  0  0  0  0  0  0  0  0
   12.3146   -7.2281    0.0000 C   0  0  0  0  0  0  0  0  0  0  0  0
   12.7272   -6.5137    0.0000 N   0  0  0  0  0  0  0  0  0  0  0  0
   12.1752   -5.9008    0.0000 O   0  0  0  0  0  0  0  0  0  0  0  0
   12.6502   -7.9817    0.0000 C   0  0  0  0  0  0  0  0  0  0  0  0
    5.0000   -9.9595    0.0000 C   0  0  0  0  0  0  0  0  0  0  0  0
    4.2859   -9.5465    0.0000 F   0  0  0  0  0  0  0  0  0  0  0  0
    4.9993  -10.7844    0.0000 F   0  0  0  0  0  0  0  0  0  0  0  0
    4.7871   -9.1626    0.0000 F   0  0  0  0  0  0  0  0  0  0  0  0
  2 29  1  0  0  0  0
 29 30  1  0  0  0  0
 29 31  1  0  0  0  0
 29 32  1  0  0  0  0
 10 16  1  0  0  0  0
  3  4  2  0  0  0  0
  7  8  1  0  0  0  0
  7  9  1  0  0  0  0
  4  5  1  0  0  0  0
 10 20  1  0  0  0  0
 16 17  1  0  0  0  0
 17 18  1  0  0  0  0
 18 19  1  0  0  0  0
 19 20  1  0  0  0  0
  9 10  1  0  0  0  0
 18 21  1  0  0  0  0
  2  3  1  0  0  0  0
 21 22  1  0  0  0  0
  8 11  2  0  0  0  0
 21 23  2  0  0  0  0
 22 24  2  0  0  0  0
  5  6  2  0  0  0  0
 11 12  1  0  0  0  0
  6  1  1  0  0  0  0
 12 13  2  0  0  0  0
 24 25  1  0  0  0  0
 25 26  2  0  0  0  0
 26 27  1  0  0  0  0
 27 22  1  0  0  0  0
  1  2  2  0  0  0  0
 25 28  1  0  0  0  0
 13 14  1  0  0  0  0
  5  7  1  0  0  0  0
 14 15  2  0  0  0  0
 15  8  1  0  0  0  0
M  END
> <Molecule Name>
DNDI1538110

> <CDD Number>
CDD-1535738

> <IC50_uM>
0.363 (n=1)

$$$$

SketchEl molfile

 30 33  0  0  0  0  0  0  0  0999 V2000
    5.7161  -10.6494    0.0000 C   0  0  0  0  0  0  0  0  0  0  0  0
    5.7149  -11.4769    0.0000 C   0  0  0  0  0  0  0  0  0  0  0  0
    6.4297  -11.8897    0.0000 C   0  0  0  0  0  0  0  0  0  0  0  0
    7.1463  -11.4764    0.0000 C   0  0  0  0  0  0  0  0  0  0  0  0
    7.1434  -10.6458    0.0000 C   0  0  0  0  0  0  0  0  0  0  0  0
    6.4279  -10.2366    0.0000 C   0  0  0  0  0  0  0  0  0  0  0  0
    7.8564  -10.2306    0.0000 C   0  0  0  0  0  0  0  0  0  0  0  0
    8.5724  -10.6404    0.0000 C   0  0  0  0  0  0  0  0  0  0  0  0
    7.8533   -9.4055    0.0000 N   0  0  0  0  0  0  0  0  0  0  0  0
    8.5674   -8.9948    0.0000 C   0  0  0  0  0  0  0  0  0  0  0  0
    8.5663   -8.1733    0.0000 C   0  0  0  0  0  0  0  0  0  0  0  0
    7.8521   -7.7595    0.0000 N   0  0  0  0  0  0  0  0  0  0  0  0
    7.1373   -8.1736    0.0000 C   0  0  0  0  0  0  0  0  0  0  0  0
    7.1367   -9.0013    0.0000 C   0  0  0  0  0  0  0  0  0  0  0  0
    8.5722  -11.4631    0.0000 C   0  0  0  0  0  0  0  0  0  0  0  0
    9.2875  -11.8728    0.0000 N   0  0  0  0  0  0  0  0  0  0  0  0
   10.0015  -11.4576    0.0000 C   0  0  0  0  0  0  0  0  0  0  0  0
    9.9957  -10.6283    0.0000 C   0  0  0  0  0  0  0  0  0  0  0  0
    9.2798  -10.2223    0.0000 C   0  0  0  0  0  0  0  0  0  0  0  0
    7.8521   -6.9345    0.0000 C   0  0  0  0  0  0  0  0  0  0  0  0
    8.5199   -6.4521    0.0000 N   0  0  0  0  0  0  0  0  0  0  0  0
    8.2650   -5.6675    0.0000 O   0  0  0  0  0  0  0  0  0  0  0  0
    7.4399   -5.6675    0.0000 C   0  0  0  0  0  0  0  0  0  0  0  0
    7.1850   -6.4521    0.0000 N   0  0  0  0  0  0  0  0  0  0  0  0
    6.9549   -5.0000    0.0000 N   0  0  0  0  0  0  0  0  0  0  0  0
    6.4255   -9.4115    0.0000 F   0  0  0  0  0  0  0  0  0  0  0  0
    5.0000  -11.8888    0.0000 C   0  0  0  0  0  0  0  0  0  0  0  0
    4.2858  -11.4757    0.0000 F   0  0  0  0  0  0  0  0  0  0  0  0
    4.9994  -12.7139    0.0000 F   0  0  0  0  0  0  0  0  0  0  0  0
    4.7871  -11.0917    0.0000 F   0  0  0  0  0  0  0  0  0  0  0  0
  2 27  1  0  0  0  0
 27 28  1  0  0  0  0
 27 29  1  0  0  0  0
 27 30  1  0  0  0  0
  5  7  1  0  0  0  0
  8 15  2  0  0  0  0
  3  4  2  0  0  0  0
 15 16  1  0  0  0  0
  7  8  1  0  0  0  0
 16 17  2  0  0  0  0
 17 18  1  0  0  0  0
  7  9  1  0  0  0  0
 18 19  2  0  0  0  0
 19  8  1  0  0  0  0
  9 10  1  0  0  0  0
 12 20  1  0  0  0  0
 20 21  2  0  0  0  0
  4  5  1  0  0  0  0
  2  3  1  0  0  0  0
  5  6  2  0  0  0  0
  6  1  1  0  0  0  0
 21 22  1  0  0  0  0
 22 23  1  0  0  0  0
 23 24  2  0  0  0  0
 24 20  1  0  0  0  0
  1  2  2  0  0  0  0
 23 25  1  0  0  0  0
  9 14  1  0  0  0  0
  6 26  1  0  0  0  0
 10 11  1  0  0  0  0
 11 12  1  0  0  0  0
 12 13  1  0  0  0  0
 13 14  1  0  0  0  0
M  END
> <Molecule Name>
DNDI1538111

> <CDD Number>
CDD-1535739

> <IC50_uM>
0.0365 (n=1)

$$$$

SketchEl molfile

 28 30  0  0  0  0  0  0  0  0999 V2000
    5.7159   -9.5411    0.0000 C   0  0  0  0  0  0  0  0  0  0  0  0
    5.7147  -10.3684    0.0000 C   0  0  0  0  0  0  0  0  0  0  0  0
    6.4294  -10.7813    0.0000 C   0  0  0  0  0  0  0  0  0  0  0  0
    7.1459  -10.3679    0.0000 C   0  0  0  0  0  0  0  0  0  0  0  0
    7.1430   -9.5375    0.0000 C   0  0  0  0  0  0  0  0  0  0  0  0
    6.4276   -9.1285    0.0000 C   0  0  0  0  0  0  0  0  0  0  0  0
    7.8558   -9.1224    0.0000 C   0  0  0  0  0  0  0  0  0  0  0  0
    8.5717   -9.5321    0.0000 C   0  0  0  0  0  0  0  0  0  0  0  0
    7.8527   -8.2975    0.0000 N   0  0  0  0  0  0  0  0  0  0  0  0
    8.5667   -7.8868    0.0000 C   0  0  0  0  0  0  0  0  0  0  0  0
    8.5656   -7.0655    0.0000 C   0  0  0  0  0  0  0  0  0  0  0  0
    7.8515   -6.6518    0.0000 N   0  0  0  0  0  0  0  0  0  0  0  0
    7.1369   -7.0658    0.0000 C   0  0  0  0  0  0  0  0  0  0  0  0
    7.1363   -7.8933    0.0000 C   0  0  0  0  0  0  0  0  0  0  0  0
    8.5715  -10.3547    0.0000 C   0  0  0  0  0  0  0  0  0  0  0  0
    9.2866  -10.7644    0.0000 N   0  0  0  0  0  0  0  0  0  0  0  0
   10.0004  -10.3491    0.0000 C   0  0  0  0  0  0  0  0  0  0  0  0
    9.9946   -9.5200    0.0000 C   0  0  0  0  0  0  0  0  0  0  0  0
    9.2789   -9.1141    0.0000 C   0  0  0  0  0  0  0  0  0  0  0  0
    7.8515   -5.8269    0.0000 S   0  0  0  0  0  0  0  0  0  0  0  0
    6.4252   -8.3036    0.0000 F   0  0  0  0  0  0  0  0  0  0  0  0
    7.0255   -5.8249    0.0000 O   0  0  0  0  0  0  0  0  0  0  0  0
    7.8463   -5.0000    0.0000 C   0  0  0  0  0  0  0  0  0  0  0  0
    8.6753   -5.8249    0.0000 O   0  0  0  0  0  0  0  0  0  0  0  0
    5.0000  -10.7803    0.0000 C   0  0  0  0  0  0  0  0  0  0  0  0
    4.2860  -10.3673    0.0000 F   0  0  0  0  0  0  0  0  0  0  0  0
    4.9994  -11.6052    0.0000 F   0  0  0  0  0  0  0  0  0  0  0  0
    4.7871   -9.9834    0.0000 F   0  0  0  0  0  0  0  0  0  0  0  0
  2 25  1  0  0  0  0
 25 26  1  0  0  0  0
 25 27  1  0  0  0  0
 25 28  1  0  0  0  0
 12 13  1  0  0  0  0
 13 14  1  0  0  0  0
  5  7  1  0  0  0  0
  8 15  2  0  0  0  0
  3  4  2  0  0  0  0
 15 16  1  0  0  0  0
  7  8  1  0  0  0  0
 16 17  2  0  0  0  0
 17 18  1  0  0  0  0
  7  9  1  0  0  0  0
 18 19  2  0  0  0  0
 19  8  1  0  0  0  0
  9 10  1  0  0  0  0
 12 20  1  0  0  0  0
  4  5  1  0  0  0  0
  6 21  1  0  0  0  0
  2  3  1  0  0  0  0
 20 22  2  0  0  0  0
  5  6  2  0  0  0  0
 20 23  1  0  0  0  0
  6  1  1  0  0  0  0
 20 24  2  0  0  0  0
  1  2  2  0  0  0  0
  9 14  1  0  0  0  0
 10 11  1  0  0  0  0
 11 12  1  0  0  0  0
M  END
> <Molecule Name>
DNDI1538112

> <CDD Number>
CDD-1535740

> <IC50_uM>
0.0275 (n=1)

$$$$

SketchEl molfile

 30 33  0  0  0  0  0  0  0  0999 V2000
    5.7160  -10.6522    0.0000 C   0  0  0  0  0  0  0  0  0  0  0  0
    5.7148  -11.4796    0.0000 C   0  0  0  0  0  0  0  0  0  0  0  0
    6.4295  -11.8925    0.0000 C   0  0  0  0  0  0  0  0  0  0  0  0
    7.1460  -11.4791    0.0000 C   0  0  0  0  0  0  0  0  0  0  0  0
    7.1431  -10.6486    0.0000 C   0  0  0  0  0  0  0  0  0  0  0  0
    6.4277  -10.2396    0.0000 C   0  0  0  0  0  0  0  0  0  0  0  0
    7.8559  -10.2335    0.0000 C   0  0  0  0  0  0  0  0  0  0  0  0
    8.5719  -10.6432    0.0000 C   0  0  0  0  0  0  0  0  0  0  0  0
    7.8528   -9.4085    0.0000 N   0  0  0  0  0  0  0  0  0  0  0  0
    8.5669   -8.9979    0.0000 C   0  0  0  0  0  0  0  0  0  0  0  0
    8.5658   -8.1765    0.0000 C   0  0  0  0  0  0  0  0  0  0  0  0
    7.8516   -7.7628    0.0000 N   0  0  0  0  0  0  0  0  0  0  0  0
    7.1370   -8.1768    0.0000 C   0  0  0  0  0  0  0  0  0  0  0  0
    7.1364   -9.0044    0.0000 C   0  0  0  0  0  0  0  0  0  0  0  0
    8.5717  -11.4659    0.0000 C   0  0  0  0  0  0  0  0  0  0  0  0
    9.2868  -11.8756    0.0000 N   0  0  0  0  0  0  0  0  0  0  0  0
   10.0007  -11.4603    0.0000 C   0  0  0  0  0  0  0  0  0  0  0  0
    9.9949  -10.6311    0.0000 N   0  0  0  0  0  0  0  0  0  0  0  0
    9.2791  -10.2252    0.0000 C   0  0  0  0  0  0  0  0  0  0  0  0
    6.4253   -9.4146    0.0000 F   0  0  0  0  0  0  0  0  0  0  0  0
    7.8516   -6.9379    0.0000 C   0  0  0  0  0  0  0  0  0  0  0  0
    8.5167   -6.4519    0.0000 O   0  0  0  0  0  0  0  0  0  0  0  0
    8.2618   -5.6674    0.0000 N   0  0  0  0  0  0  0  0  0  0  0  0
    7.4368   -5.6674    0.0000 C   0  0  0  0  0  0  0  0  0  0  0  0
    7.1820   -6.4519    0.0000 N   0  0  0  0  0  0  0  0  0  0  0  0
    6.9519   -5.0000    0.0000 C   0  0  0  0  0  0  0  0  0  0  0  0
    5.0000  -11.8915    0.0000 C   0  0  0  0  0  0  0  0  0  0  0  0
    4.2859  -11.4785    0.0000 F   0  0  0  0  0  0  0  0  0  0  0  0
    4.9994  -12.7164    0.0000 F   0  0  0  0  0  0  0  0  0  0  0  0
    4.7871  -11.0945    0.0000 F   0  0  0  0  0  0  0  0  0  0  0  0
  2 27  1  0  0  0  0
 27 28  1  0  0  0  0
 27 29  1  0  0  0  0
 27 30  1  0  0  0  0
  5  7  1  0  0  0  0
  8 15  2  0  0  0  0
  3  4  2  0  0  0  0
 15 16  1  0  0  0  0
  7  8  1  0  0  0  0
 16 17  2  0  0  0  0
 17 18  1  0  0  0  0
  7  9  1  0  0  0  0
 18 19  2  0  0  0  0
 19  8  1  0  0  0  0
  9 10  1  0  0  0  0
  6 20  1  0  0  0  0
  4  5  1  0  0  0  0
 12 21  1  0  0  0  0
 21 22  1  0  0  0  0
  2  3  1  0  0  0  0
  5  6  2  0  0  0  0
  6  1  1  0  0  0  0
  1  2  2  0  0  0  0
 22 23  1  0  0  0  0
 23 24  2  0  0  0  0
 24 25  1  0  0  0  0
 25 21  2  0  0  0  0
  9 14  1  0  0  0  0
 24 26  1  0  0  0  0
 10 11  1  0  0  0  0
 11 12  1  0  0  0  0
 12 13  1  0  0  0  0
 13 14  1  0  0  0  0
M  END
> <Molecule Name>
DNDI1538113

> <CDD Number>
CDD-1535741

> <IC50_uM>
0.126 (n=1)

$$$$

SketchEl molfile

 30 33  0  0  0  0  0  0  0  0999 V2000
    5.7158  -10.6521    0.0000 C   0  0  0  0  0  0  0  0  0  0  0  0
    5.7147  -11.4795    0.0000 C   0  0  0  0  0  0  0  0  0  0  0  0
    6.4295  -11.8924    0.0000 C   0  0  0  0  0  0  0  0  0  0  0  0
    7.1458  -11.4790    0.0000 C   0  0  0  0  0  0  0  0  0  0  0  0
    7.1430  -10.6485    0.0000 C   0  0  0  0  0  0  0  0  0  0  0  0
    6.4277  -10.2395    0.0000 C   0  0  0  0  0  0  0  0  0  0  0  0
    7.8559  -10.2334    0.0000 C   0  0  0  0  0  0  0  0  0  0  0  0
    8.5718  -10.6432    0.0000 C   0  0  0  0  0  0  0  0  0  0  0  0
    7.8528   -9.4084    0.0000 N   0  0  0  0  0  0  0  0  0  0  0  0
    8.5668   -8.9978    0.0000 C   0  0  0  0  0  0  0  0  0  0  0  0
    8.5657   -8.1764    0.0000 C   0  0  0  0  0  0  0  0  0  0  0  0
    7.8516   -7.7628    0.0000 N   0  0  0  0  0  0  0  0  0  0  0  0
    7.1368   -8.1767    0.0000 C   0  0  0  0  0  0  0  0  0  0  0  0
    7.1363   -9.0043    0.0000 C   0  0  0  0  0  0  0  0  0  0  0  0
    8.5716  -11.4658    0.0000 C   0  0  0  0  0  0  0  0  0  0  0  0
    9.2867  -11.8755    0.0000 N   0  0  0  0  0  0  0  0  0  0  0  0
   10.0005  -11.4602    0.0000 C   0  0  0  0  0  0  0  0  0  0  0  0
    9.9948  -10.6311    0.0000 C   0  0  0  0  0  0  0  0  0  0  0  0
    9.2791  -10.2251    0.0000 C   0  0  0  0  0  0  0  0  0  0  0  0
    6.4252   -9.4145    0.0000 F   0  0  0  0  0  0  0  0  0  0  0  0
    7.8516   -6.9378    0.0000 C   0  0  0  0  0  0  0  0  0  0  0  0
    8.5166   -6.4518    0.0000 O   0  0  0  0  0  0  0  0  0  0  0  0
    8.2618   -5.6673    0.0000 N   0  0  0  0  0  0  0  0  0  0  0  0
    7.4367   -5.6673    0.0000 C   0  0  0  0  0  0  0  0  0  0  0  0
    7.1819   -6.4518    0.0000 N   0  0  0  0  0  0  0  0  0  0  0  0
    6.9519   -5.0000    0.0000 C   0  0  0  0  0  0  0  0  0  0  0  0
    5.0000  -11.8914    0.0000 C   0  0  0  0  0  0  0  0  0  0  0  0
    4.2859  -11.4784    0.0000 F   0  0  0  0  0  0  0  0  0  0  0  0
    4.9993  -12.7163    0.0000 F   0  0  0  0  0  0  0  0  0  0  0  0
    4.7871  -11.0944    0.0000 F   0  0  0  0  0  0  0  0  0  0  0  0
  2 27  1  0  0  0  0
 27 28  1  0  0  0  0
 27 29  1  0  0  0  0
 27 30  1  0  0  0  0
  5  7  1  0  0  0  0
  8 15  2  0  0  0  0
  3  4  2  0  0  0  0
 15 16  1  0  0  0  0
  7  8  1  0  0  0  0
 16 17  2  0  0  0  0
 17 18  1  0  0  0  0
  7  9  1  0  0  0  0
 18 19  2  0  0  0  0
 19  8  1  0  0  0  0
  9 10  1  0  0  0  0
  6 20  1  0  0  0  0
  4  5  1  0  0  0  0
 12 21  1  0  0  0  0
 21 22  1  0  0  0  0
  2  3  1  0  0  0  0
  5  6  2  0  0  0  0
  6  1  1  0  0  0  0
  1  2  2  0  0  0  0
 22 23  1  0  0  0  0
 23 24  2  0  0  0  0
 24 25  1  0  0  0  0
 25 21  2  0  0  0  0
  9 14  1  0  0  0  0
 24 26  1  0  0  0  0
 10 11  1  0  0  0  0
 11 12  1  0  0  0  0
 12 13  1  0  0  0  0
 13 14  1  0  0  0  0
M  END
> <Molecule Name>
DNDI1538114

> <CDD Number>
CDD-1535742

> <IC50_uM>
0.0165 (n=1)

$$$$

SketchEl molfile

 29 31  0  0  0  0  0  0  0  0999 V2000
    8.5710   -6.6584    0.0000 C   0  0  0  0  0  0  0  0  0  0  0  0
    7.8627  -10.3712    0.0000 C   0  0  0  0  0  0  0  0  0  0  0  0
    8.5710   -7.4835    0.0000 N   0  0  0  0  0  0  0  0  0  0  0  0
    8.5710   -9.1294    0.0000 N   0  0  0  0  0  0  0  0  0  0  0  0
    8.5752   -9.9545    0.0000 C   0  0  0  0  0  0  0  0  0  0  0  0
    7.1460   -9.9586    0.0000 C   0  0  0  0  0  0  0  0  0  0  0  0
    5.0000  -12.0171    0.0000 N   0  0  0  0  0  0  0  0  0  0  0  0
    9.2836   -6.2459    0.0000 O   0  0  0  0  0  0  0  0  0  0  0  0
    7.8627  -11.2004    0.0000 C   0  0  0  0  0  0  0  0  0  0  0  0
    5.7167  -11.6129    0.0000 C   0  0  0  0  0  0  0  0  0  0  0  0
    9.2919  -10.3628    0.0000 C   0  0  0  0  0  0  0  0  0  0  0  0
    7.8543   -6.2459    0.0000 O   0  0  0  0  0  0  0  0  0  0  0  0
    7.8543   -7.8960    0.0000 C   0  0  0  0  0  0  0  0  0  0  0  0
    9.2836   -7.8960    0.0000 C   0  0  0  0  0  0  0  0  0  0  0  0
    7.8543   -8.7252    0.0000 C   0  0  0  0  0  0  0  0  0  0  0  0
    9.2836   -8.7169    0.0000 C   0  0  0  0  0  0  0  0  0  0  0  0
    6.4334  -10.3753    0.0000 C   0  0  0  0  0  0  0  0  0  0  0  0
   10.0045  -11.5962    0.0000 N   0  0  0  0  0  0  0  0  0  0  0  0
    9.2794   -5.4167    0.0000 C   0  0  0  0  0  0  0  0  0  0  0  0
    6.4334  -11.2004    0.0000 C   0  0  0  0  0  0  0  0  0  0  0  0
    7.1418   -9.1336    0.0000 F   0  0  0  0  0  0  0  0  0  0  0  0
    7.1460  -11.6129    0.0000 C   0  0  0  0  0  0  0  0  0  0  0  0
    9.2919  -11.1879    0.0000 C   0  0  0  0  0  0  0  0  0  0  0  0
    9.9961   -9.9461    0.0000 C   0  0  0  0  0  0  0  0  0  0  0  0
   10.7212  -11.1795    0.0000 C   0  0  0  0  0  0  0  0  0  0  0  0
    9.9878   -5.0000    0.0000 C   0  0  0  0  0  0  0  0  0  0  0  0
    8.5585   -5.0125    0.0000 C   0  0  0  0  0  0  0  0  0  0  0  0
   10.0753   -5.6251    0.0000 C   0  0  0  0  0  0  0  0  0  0  0  0
   10.7128  -10.3503    0.0000 C   0  0  0  0  0  0  0  0  0  0  0  0
  2  5  1  0  0  0  0
  3  1  1  0  0  0  0
  4 15  1  0  0  0  0
  5  4  1  0  0  0  0
  6  2  2  0  0  0  0
  7 10  3  0  0  0  0
  8  1  1  0  0  0  0
  9  2  1  0  0  0  0
 10 20  1  0  0  0  0
 11  5  1  0  0  0  0
 12  1  2  0  0  0  0
 13  3  1  0  0  0  0
 14  3  1  0  0  0  0
 15 13  1  0  0  0  0
 16 14  1  0  0  0  0
 17  6  1  0  0  0  0
 18 23  1  0  0  0  0
 19  8  1  0  0  0  0
 20 17  2  0  0  0  0
 21  6  1  0  0  0  0
 22  9  2  0  0  0  0
 23 11  2  0  0  0  0
 24 11  1  0  0  0  0
 25 29  1  0  0  0  0
 26 19  1  0  0  0  0
 27 19  1  0  0  0  0
 28 19  1  0  0  0  0
 29 24  2  0  0  0  0
 16  4  1  0  0  0  0
 22 20  1  0  0  0  0
 25 18  2  0  0  0  0
M  END
> <Molecule Name>
DNDI1551240

> <CDD Number>
CDD-1535743

> <IC50_uM>
0.532 (n=1)

$$$$

SketchEl molfile

 30 32  0  0  0  0  0  0  0  0999 V2000
    5.7157   -8.7200    0.0000 C   0  0  0  0  0  0  0  0  0  0  0  0
    5.7146   -9.5472    0.0000 C   0  0  0  0  0  0  0  0  0  0  0  0
    6.4293   -9.9599    0.0000 C   0  0  0  0  0  0  0  0  0  0  0  0
    7.1455   -9.5467    0.0000 C   0  0  0  0  0  0  0  0  0  0  0  0
    7.1427   -8.7164    0.0000 C   0  0  0  0  0  0  0  0  0  0  0  0
    6.4275   -8.3073    0.0000 C   0  0  0  0  0  0  0  0  0  0  0  0
    7.8554   -8.3013    0.0000 C   0  0  0  0  0  0  0  0  0  0  0  0
    8.5713   -8.7110    0.0000 C   0  0  0  0  0  0  0  0  0  0  0  0
    7.8523   -7.4765    0.0000 N   0  0  0  0  0  0  0  0  0  0  0  0
    8.5651   -7.0614    0.0000 C   0  0  0  0  0  0  0  0  0  0  0  0
    9.2760   -7.4740    0.0000 C   0  0  0  0  0  0  0  0  0  0  0  0
    9.9866   -7.0624    0.0000 C   0  0  0  0  0  0  0  0  0  0  0  0
    9.9878   -6.2372    0.0000 N   0  0  0  0  0  0  0  0  0  0  0  0
    9.2721   -5.8253    0.0000 C   0  0  0  0  0  0  0  0  0  0  0  0
    8.5553   -6.2386    0.0000 C   0  0  0  0  0  0  0  0  0  0  0  0
   10.7020   -5.8248    0.0000 C   0  0  0  0  0  0  0  0  0  0  0  0
   11.4164   -6.2373    0.0000 O   0  0  0  0  0  0  0  0  0  0  0  0
   10.7020   -5.0000    0.0000 O   0  0  0  0  0  0  0  0  0  0  0  0
   12.1307   -5.8249    0.0000 C   0  0  0  0  0  0  0  0  0  0  0  0
   12.8449   -6.2373    0.0000 C   0  0  0  0  0  0  0  0  0  0  0  0
   12.1307   -5.0001    0.0000 C   0  0  0  0  0  0  0  0  0  0  0  0
   12.3442   -6.6216    0.0000 C   0  0  0  0  0  0  0  0  0  0  0  0
    8.6642   -9.5298    0.0000 C   0  0  0  0  0  0  0  0  0  0  0  0
    9.4716   -9.6983    0.0000 N   0  0  0  0  0  0  0  0  0  0  0  0
    9.8814   -8.9824    0.0000 C   0  0  0  0  0  0  0  0  0  0  0  0
    9.3272   -8.3717    0.0000 S   0  0  0  0  0  0  0  0  0  0  0  0
    5.0000   -9.9590    0.0000 C   0  0  0  0  0  0  0  0  0  0  0  0
    4.2860   -9.5460    0.0000 F   0  0  0  0  0  0  0  0  0  0  0  0
    4.9993  -10.7838    0.0000 F   0  0  0  0  0  0  0  0  0  0  0  0
    4.7871   -9.1621    0.0000 F   0  0  0  0  0  0  0  0  0  0  0  0
  2 27  1  0  0  0  0
 27 28  1  0  0  0  0
 27 29  1  0  0  0  0
 27 30  1  0  0  0  0
 13 14  1  0  0  0  0
 14 15  1  0  0  0  0
  3  4  2  0  0  0  0
 13 16  1  0  0  0  0
  7  8  1  0  0  0  0
 16 17  1  0  0  0  0
 16 18  2  0  0  0  0
  7  9  1  0  0  0  0
 17 19  1  0  0  0  0
  4  5  1  0  0  0  0
 19 20  1  0  0  0  0
  9 10  1  0  0  0  0
 19 21  1  0  0  0  0
 10 11  1  0  0  0  0
 19 22  1  0  0  0  0
  8 23  2  0  0  0  0
  2  3  1  0  0  0  0
  5  6  2  0  0  0  0
  6  1  1  0  0  0  0
  1  2  2  0  0  0  0
 23 24  1  0  0  0  0
 24 25  2  0  0  0  0
 25 26  1  0  0  0  0
 26  8  1  0  0  0  0
  5  7  1  0  0  0  0
 10 15  1  0  0  0  0
 11 12  1  0  0  0  0
 12 13  1  0  0  0  0
M  END
> <Molecule Name>
DNDI1551241

> <CDD Number>
CDD-1535744

> <IC50_uM>
0.007 (n=1)

$$$$

SketchEl molfile

 30 32  0  0  0  0  0  0  0  0999 V2000
    5.7159   -9.9538    0.0000 C   0  0  0  0  0  0  0  0  0  0  0  0
    5.7147  -10.7811    0.0000 C   0  0  0  0  0  0  0  0  0  0  0  0
    6.4294  -11.1940    0.0000 C   0  0  0  0  0  0  0  0  0  0  0  0
    7.1458  -10.7806    0.0000 C   0  0  0  0  0  0  0  0  0  0  0  0
    7.1429   -9.9502    0.0000 C   0  0  0  0  0  0  0  0  0  0  0  0
    6.4276   -9.5412    0.0000 C   0  0  0  0  0  0  0  0  0  0  0  0
    7.8558   -9.5351    0.0000 C   0  0  0  0  0  0  0  0  0  0  0  0
    8.5717   -9.9448    0.0000 C   0  0  0  0  0  0  0  0  0  0  0  0
    7.8527   -8.7102    0.0000 N   0  0  0  0  0  0  0  0  0  0  0  0
    8.5707   -8.2972    0.0000 C   0  0  0  0  0  0  0  0  0  0  0  0
    8.5696   -7.4759    0.0000 C   0  0  0  0  0  0  0  0  0  0  0  0
    7.8555   -7.0623    0.0000 N   0  0  0  0  0  0  0  0  0  0  0  0
    7.1407   -7.4762    0.0000 C   0  0  0  0  0  0  0  0  0  0  0  0
    7.1402   -8.3037    0.0000 C   0  0  0  0  0  0  0  0  0  0  0  0
    8.5715  -10.7674    0.0000 C   0  0  0  0  0  0  0  0  0  0  0  0
    9.2866  -11.1771    0.0000 N   0  0  0  0  0  0  0  0  0  0  0  0
   10.0004  -10.7618    0.0000 C   0  0  0  0  0  0  0  0  0  0  0  0
    9.9946   -9.9327    0.0000 C   0  0  0  0  0  0  0  0  0  0  0  0
    9.2789   -9.5268    0.0000 C   0  0  0  0  0  0  0  0  0  0  0  0
    7.8555   -6.2374    0.0000 C   0  0  0  0  0  0  0  0  0  0  0  0
    8.5698   -5.8249    0.0000 C   0  0  0  0  0  0  0  0  0  0  0  0
    7.1410   -5.8249    0.0000 O   0  0  0  0  0  0  0  0  0  0  0  0
    9.2842   -6.2375    0.0000 C   0  0  0  0  0  0  0  0  0  0  0  0
    8.5699   -5.0000    0.0000 C   0  0  0  0  0  0  0  0  0  0  0  0
    8.7834   -6.6217    0.0000 C   0  0  0  0  0  0  0  0  0  0  0  0
    6.4252   -8.7163    0.0000 F   0  0  0  0  0  0  0  0  0  0  0  0
    5.0000  -11.1930    0.0000 C   0  0  0  0  0  0  0  0  0  0  0  0
    4.2860  -10.7800    0.0000 F   0  0  0  0  0  0  0  0  0  0  0  0
    4.9994  -12.0179    0.0000 F   0  0  0  0  0  0  0  0  0  0  0  0
    4.7871  -10.3961    0.0000 F   0  0  0  0  0  0  0  0  0  0  0  0
  2 27  1  0  0  0  0
 27 28  1  0  0  0  0
 27 29  1  0  0  0  0
 27 30  1  0  0  0  0
  5  7  1  0  0  0  0
  8 15  2  0  0  0  0
  3  4  2  0  0  0  0
 15 16  1  0  0  0  0
  7  8  1  0  0  0  0
 16 17  2  0  0  0  0
 17 18  1  0  0  0  0
  7  9  1  0  0  0  0
 18 19  2  0  0  0  0
 19  8  1  0  0  0  0
  9 10  1  0  0  0  0
 12 20  1  0  0  0  0
  4  5  1  0  0  0  0
 20 21  1  0  0  0  0
  2  3  1  0  0  0  0
 20 22  2  0  0  0  0
  5  6  2  0  0  0  0
 21 23  1  0  0  0  0
  6  1  1  0  0  0  0
 21 24  1  0  0  0  0
  1  2  2  0  0  0  0
 21 25  1  0  0  0  0
  9 14  1  0  0  0  0
  6 26  1  0  0  0  0
 10 11  1  0  0  0  0
 11 12  1  0  0  0  0
 12 13  1  0  0  0  0
 13 14  1  0  0  0  0
M  END
> <Molecule Name>
DNDI1551253

> <CDD Number>
CDD-1535745

> <IC50_uM>
0.0235 (n=1)

$$$$

SketchEl molfile

 32 35  0  0  0  0  0  0  0  0999 V2000
    5.7159  -10.5055    0.0000 C   0  0  0  0  0  0  0  0  0  0  0  0
    5.7147  -11.3327    0.0000 C   0  0  0  0  0  0  0  0  0  0  0  0
    6.4293  -11.7454    0.0000 C   0  0  0  0  0  0  0  0  0  0  0  0
    7.1457  -11.3322    0.0000 C   0  0  0  0  0  0  0  0  0  0  0  0
    7.1428  -10.5019    0.0000 C   0  0  0  0  0  0  0  0  0  0  0  0
    6.4275  -10.0927    0.0000 C   0  0  0  0  0  0  0  0  0  0  0  0
    7.8556  -10.0867    0.0000 C   0  0  0  0  0  0  0  0  0  0  0  0
    8.5715  -10.4965    0.0000 C   0  0  0  0  0  0  0  0  0  0  0  0
    7.8525   -9.2619    0.0000 N   0  0  0  0  0  0  0  0  0  0  0  0
    8.5705   -8.8490    0.0000 C   0  0  0  0  0  0  0  0  0  0  0  0
    8.5694   -8.0277    0.0000 C   0  0  0  0  0  0  0  0  0  0  0  0
    7.8553   -7.6141    0.0000 N   0  0  0  0  0  0  0  0  0  0  0  0
    7.1406   -8.0280    0.0000 C   0  0  0  0  0  0  0  0  0  0  0  0
    7.1401   -8.8555    0.0000 C   0  0  0  0  0  0  0  0  0  0  0  0
    8.5713  -11.3189    0.0000 C   0  0  0  0  0  0  0  0  0  0  0  0
    9.2863  -11.7286    0.0000 N   0  0  0  0  0  0  0  0  0  0  0  0
   10.0001  -11.3134    0.0000 C   0  0  0  0  0  0  0  0  0  0  0  0
    9.9943  -10.4844    0.0000 C   0  0  0  0  0  0  0  0  0  0  0  0
    9.2786  -10.0784    0.0000 C   0  0  0  0  0  0  0  0  0  0  0  0
    7.8553   -6.7892    0.0000 C   0  0  0  0  0  0  0  0  0  0  0  0
    8.5696   -6.3768    0.0000 C   0  0  0  0  0  0  0  0  0  0  0  0
    7.1409   -6.3768    0.0000 O   0  0  0  0  0  0  0  0  0  0  0  0
    6.4251   -9.2679    0.0000 F   0  0  0  0  0  0  0  0  0  0  0  0
    9.3220   -6.7071    0.0000 S   0  0  0  0  0  0  0  0  0  0  0  0
    9.8739   -6.0941    0.0000 C   0  0  0  0  0  0  0  0  0  0  0  0
    9.4615   -5.3797    0.0000 N   0  0  0  0  0  0  0  0  0  0  0  0
    8.6548   -5.5513    0.0000 C   0  0  0  0  0  0  0  0  0  0  0  0
    8.0412   -5.0000    0.0000 C   0  0  0  0  0  0  0  0  0  0  0  0
    5.0000  -11.7445    0.0000 C   0  0  0  0  0  0  0  0  0  0  0  0
    4.2860  -11.3315    0.0000 F   0  0  0  0  0  0  0  0  0  0  0  0
    4.9994  -12.5694    0.0000 F   0  0  0  0  0  0  0  0  0  0  0  0
    4.7871  -10.9476    0.0000 F   0  0  0  0  0  0  0  0  0  0  0  0
  2 29  1  0  0  0  0
 29 30  1  0  0  0  0
 29 31  1  0  0  0  0
 29 32  1  0  0  0  0
  3  4  2  0  0  0  0
 15 16  1  0  0  0  0
  7  8  1  0  0  0  0
 16 17  2  0  0  0  0
 17 18  1  0  0  0  0
  7  9  1  0  0  0  0
 18 19  2  0  0  0  0
 19  8  1  0  0  0  0
  9 10  1  0  0  0  0
 12 20  1  0  0  0  0
  4  5  1  0  0  0  0
 20 21  1  0  0  0  0
  2  3  1  0  0  0  0
 20 22  2  0  0  0  0
  5  6  2  0  0  0  0
  6 23  1  0  0  0  0
 21 24  1  0  0  0  0
  6  1  1  0  0  0  0
  1  2  2  0  0  0  0
  9 14  1  0  0  0  0
 10 11  1  0  0  0  0
 24 25  1  0  0  0  0
 25 26  2  0  0  0  0
 26 27  1  0  0  0  0
 27 21  2  0  0  0  0
 11 12  1  0  0  0  0
 27 28  1  0  0  0  0
 12 13  1  0  0  0  0
 13 14  1  0  0  0  0
  5  7  1  0  0  0  0
  8 15  2  0  0  0  0
M  END
> <Molecule Name>
DNDI1551254

> <CDD Number>
CDD-1535746

> <IC50_uM>
0.0585 (n=1)

$$$$

SketchEl molfile

 29 32  0  0  0  0  0  0  0  0999 V2000
    5.7161   -8.8895    0.0000 C   0  0  0  0  0  0  0  0  0  0  0  0
    5.7149   -9.7170    0.0000 C   0  0  0  0  0  0  0  0  0  0  0  0
    6.4298  -10.1298    0.0000 C   0  0  0  0  0  0  0  0  0  0  0  0
    7.1463   -9.7165    0.0000 C   0  0  0  0  0  0  0  0  0  0  0  0
    7.1434   -8.8859    0.0000 C   0  0  0  0  0  0  0  0  0  0  0  0
    6.4280   -8.4767    0.0000 C   0  0  0  0  0  0  0  0  0  0  0  0
    7.8565   -8.4707    0.0000 C   0  0  0  0  0  0  0  0  0  0  0  0
    8.5725   -8.8805    0.0000 C   0  0  0  0  0  0  0  0  0  0  0  0
    7.8533   -7.6456    0.0000 N   0  0  0  0  0  0  0  0  0  0  0  0
    8.5663   -7.2303    0.0000 C   0  0  0  0  0  0  0  0  0  0  0  0
    8.5722   -9.7032    0.0000 C   0  0  0  0  0  0  0  0  0  0  0  0
    9.2875  -10.1129    0.0000 N   0  0  0  0  0  0  0  0  0  0  0  0
   10.0015   -9.6977    0.0000 C   0  0  0  0  0  0  0  0  0  0  0  0
    9.9957   -8.8684    0.0000 C   0  0  0  0  0  0  0  0  0  0  0  0
    9.2799   -8.4624    0.0000 C   0  0  0  0  0  0  0  0  0  0  0  0
    9.2775   -7.6431    0.0000 C   0  0  0  0  0  0  0  0  0  0  0  0
    9.9884   -7.2313    0.0000 C   0  0  0  0  0  0  0  0  0  0  0  0
    9.9895   -6.4059    0.0000 N   0  0  0  0  0  0  0  0  0  0  0  0
    9.2735   -5.9938    0.0000 C   0  0  0  0  0  0  0  0  0  0  0  0
    8.5564   -6.4073    0.0000 C   0  0  0  0  0  0  0  0  0  0  0  0
   10.7040   -5.9933    0.0000 C   0  0  0  0  0  0  0  0  0  0  0  0
   11.4550   -6.3278    0.0000 S   0  0  0  0  0  0  0  0  0  0  0  0
   12.0071   -5.7146    0.0000 C   0  0  0  0  0  0  0  0  0  0  0  0
   11.5945   -5.0000    0.0000 N   0  0  0  0  0  0  0  0  0  0  0  0
   10.7875   -5.1717    0.0000 C   0  0  0  0  0  0  0  0  0  0  0  0
    5.0000  -10.1289    0.0000 C   0  0  0  0  0  0  0  0  0  0  0  0
    4.2858   -9.7158    0.0000 F   0  0  0  0  0  0  0  0  0  0  0  0
    4.9994  -10.9540    0.0000 F   0  0  0  0  0  0  0  0  0  0  0  0
    4.7872   -9.3317    0.0000 F   0  0  0  0  0  0  0  0  0  0  0  0
  2 26  1  0  0  0  0
 26 27  1  0  0  0  0
 26 28  1  0  0  0  0
 26 29  1  0  0  0  0
  5  7  1  0  0  0  0
 14 15  2  0  0  0  0
 15  8  1  0  0  0  0
 10 16  1  0  0  0  0
  3  4  2  0  0  0  0
  7  8  1  0  0  0  0
  7  9  1  0  0  0  0
  4  5  1  0  0  0  0
 10 20  1  0  0  0  0
 16 17  1  0  0  0  0
 17 18  1  0  0  0  0
 18 19  1  0  0  0  0
 19 20  1  0  0  0  0
  9 10  1  0  0  0  0
 18 21  1  0  0  0  0
 21 22  1  0  0  0  0
  2  3  1  0  0  0  0
  8 11  2  0  0  0  0
  5  6  2  0  0  0  0
 11 12  1  0  0  0  0
 22 23  1  0  0  0  0
 23 24  2  0  0  0  0
 24 25  1  0  0  0  0
 25 21  2  0  0  0  0
  6  1  1  0  0  0  0
 12 13  2  0  0  0  0
  1  2  2  0  0  0  0
 13 14  1  0  0  0  0
M  END
> <Molecule Name>
DNDI1555052

> <CDD Number>
CDD-1535747

> <IC50_uM>
0.025 (n=1)

$$$$

SketchEl molfile

 35 38  0  0  0  0  0  0  0  0999 V2000
    6.4360  -11.6012    0.0000 C   0  0  0  0  0  0  0  0  0  0  0  0
    6.4348  -12.4285    0.0000 C   0  0  0  0  0  0  0  0  0  0  0  0
    7.1495  -12.8412    0.0000 C   0  0  0  0  0  0  0  0  0  0  0  0
    7.8659  -12.4280    0.0000 C   0  0  0  0  0  0  0  0  0  0  0  0
    7.8630  -11.5976    0.0000 C   0  0  0  0  0  0  0  0  0  0  0  0
    7.1477  -11.1884    0.0000 C   0  0  0  0  0  0  0  0  0  0  0  0
    8.5759  -11.1824    0.0000 C   0  0  0  0  0  0  0  0  0  0  0  0
    9.2918  -11.5922    0.0000 C   0  0  0  0  0  0  0  0  0  0  0  0
    8.5728  -10.3575    0.0000 N   0  0  0  0  0  0  0  0  0  0  0  0
    9.2908   -9.9445    0.0000 C   0  0  0  0  0  0  0  0  0  0  0  0
    9.2897   -9.1232    0.0000 C   0  0  0  0  0  0  0  0  0  0  0  0
    8.5756   -8.7095    0.0000 C   0  0  0  0  0  0  0  0  0  0  0  0
    7.8608   -9.1235    0.0000 C   0  0  0  0  0  0  0  0  0  0  0  0
    7.8603   -9.9510    0.0000 C   0  0  0  0  0  0  0  0  0  0  0  0
    9.2916  -12.4147    0.0000 C   0  0  0  0  0  0  0  0  0  0  0  0
   10.0067  -12.8244    0.0000 N   0  0  0  0  0  0  0  0  0  0  0  0
   10.7206  -12.4092    0.0000 C   0  0  0  0  0  0  0  0  0  0  0  0
   10.7148  -11.5801    0.0000 C   0  0  0  0  0  0  0  0  0  0  0  0
    9.9990  -11.1741    0.0000 C   0  0  0  0  0  0  0  0  0  0  0  0
    8.5756   -7.8846    0.0000 N   0  0  0  0  0  0  0  0  0  0  0  0
    9.2899   -7.4722    0.0000 C   0  0  0  0  0  0  0  0  0  0  0  0
   10.0043   -7.8846    0.0000 O   0  0  0  0  0  0  0  0  0  0  0  0
    5.7200  -12.8403    0.0000 C   0  0  0  0  0  0  0  0  0  0  0  0
    5.0000  -13.2469    0.0000 N   0  0  0  0  0  0  0  0  0  0  0  0
    9.2900   -6.6472    0.0000 C   0  0  0  0  0  0  0  0  0  0  0  0
   10.0026   -6.2375    0.0000 C   0  0  0  0  0  0  0  0  0  0  0  0
   10.0030   -5.4133    0.0000 C   0  0  0  0  0  0  0  0  0  0  0  0
    9.2881   -5.0000    0.0000 C   0  0  0  0  0  0  0  0  0  0  0  0
    8.5713   -5.4169    0.0000 C   0  0  0  0  0  0  0  0  0  0  0  0
    8.5745   -6.2397    0.0000 C   0  0  0  0  0  0  0  0  0  0  0  0
    7.8620   -6.6556    0.0000 F   0  0  0  0  0  0  0  0  0  0  0  0
   10.7166   -6.6507    0.0000 C   0  0  0  0  0  0  0  0  0  0  0  0
   10.7157   -7.4757    0.0000 F   0  0  0  0  0  0  0  0  0  0  0  0
   11.4314   -6.2391    0.0000 F   0  0  0  0  0  0  0  0  0  0  0  0
   10.1326   -7.2334    0.0000 F   0  0  0  0  0  0  0  0  0  0  0  0
 26 32  1  0  0  0  0
 32 33  1  0  0  0  0
 32 34  1  0  0  0  0
 32 35  1  0  0  0  0
 16 17  2  0  0  0  0
 17 18  1  0  0  0  0
  7  9  1  0  0  0  0
 18 19  2  0  0  0  0
 19  8  1  0  0  0  0
  9 10  1  0  0  0  0
 12 20  1  0  0  0  0
  4  5  1  0  0  0  0
 20 21  1  0  0  0  0
  2  3  1  0  0  0  0
 21 22  2  0  0  0  0
  5  6  2  0  0  0  0
  2 23  1  0  0  0  0
  6  1  1  0  0  0  0
 23 24  3  0  0  0  0
  1  2  2  0  0  0  0
 21 25  1  0  0  0  0
  9 14  1  0  0  0  0
 25 26  2  0  0  0  0
 10 11  1  0  0  0  0
 26 27  1  0  0  0  0
 11 12  1  0  0  0  0
 27 28  2  0  0  0  0
 12 13  1  0  0  0  0
 28 29  1  0  0  0  0
 13 14  1  0  0  0  0
 29 30  2  0  0  0  0
 30 25  1  0  0  0  0
  5  7  1  0  0  0  0
 30 31  1  0  0  0  0
  8 15  2  0  0  0  0
  3  4  2  0  0  0  0
 15 16  1  0  0  0  0
  7  8  1  0  0  0  0
M  END
> <Molecule Name>
DNDI1555053

> <CDD Number>
CDD-1535748

> <IC50_uM>
0.0044805 (n=1)

$$$$

SketchEl molfile

 30 32  0  0  0  0  0  0  0  0999 V2000
    5.7154  -11.1422    0.0000 C   0  0  0  0  0  0  0  0  0  0  0  0
    5.7142  -11.9688    0.0000 C   0  0  0  0  0  0  0  0  0  0  0  0
    6.4284  -12.3813    0.0000 C   0  0  0  0  0  0  0  0  0  0  0  0
    7.1442  -11.9684    0.0000 C   0  0  0  0  0  0  0  0  0  0  0  0
    7.1413  -11.1385    0.0000 C   0  0  0  0  0  0  0  0  0  0  0  0
    6.4266  -10.7298    0.0000 C   0  0  0  0  0  0  0  0  0  0  0  0
    7.8537  -10.7237    0.0000 C   0  0  0  0  0  0  0  0  0  0  0  0
    8.5690  -11.1331    0.0000 C   0  0  0  0  0  0  0  0  0  0  0  0
    7.8505   -9.8994    0.0000 N   0  0  0  0  0  0  0  0  0  0  0  0
    8.5628   -9.4847    0.0000 C   0  0  0  0  0  0  0  0  0  0  0  0
    8.5687  -11.9551    0.0000 C   0  0  0  0  0  0  0  0  0  0  0  0
    9.2833  -12.3645    0.0000 N   0  0  0  0  0  0  0  0  0  0  0  0
    9.9965  -11.9496    0.0000 C   0  0  0  0  0  0  0  0  0  0  0  0
    9.9907  -11.1211    0.0000 C   0  0  0  0  0  0  0  0  0  0  0  0
    9.2757  -10.7154    0.0000 C   0  0  0  0  0  0  0  0  0  0  0  0
    8.5559   -8.6570    0.0000 C   0  0  0  0  0  0  0  0  0  0  0  0
    9.1364   -8.0669    0.0000 C   0  0  0  0  0  0  0  0  0  0  0  0
    8.5462   -7.4864    0.0000 N   0  0  0  0  0  0  0  0  0  0  0  0
    7.9658   -8.0766    0.0000 C   0  0  0  0  0  0  0  0  0  0  0  0
    8.5394   -6.6622    0.0000 C   0  0  0  0  0  0  0  0  0  0  0  0
    9.2498   -6.2442    0.0000 O   0  0  0  0  0  0  0  0  0  0  0  0
    7.8222   -6.2560    0.0000 O   0  0  0  0  0  0  0  0  0  0  0  0
    9.2428   -5.4182    0.0000 C   0  0  0  0  0  0  0  0  0  0  0  0
    9.9532   -5.0000    0.0000 C   0  0  0  0  0  0  0  0  0  0  0  0
    8.5256   -5.0121    0.0000 C   0  0  0  0  0  0  0  0  0  0  0  0
   10.0408   -5.6248    0.0000 C   0  0  0  0  0  0  0  0  0  0  0  0
    5.0000  -12.3804    0.0000 C   0  0  0  0  0  0  0  0  0  0  0  0
    4.2865  -11.9677    0.0000 F   0  0  0  0  0  0  0  0  0  0  0  0
    4.9994  -13.2047    0.0000 F   0  0  0  0  0  0  0  0  0  0  0  0
    4.7874  -11.5840    0.0000 F   0  0  0  0  0  0  0  0  0  0  0  0
  2 27  1  0  0  0  0
 27 28  1  0  0  0  0
 27 29  1  0  0  0  0
 27 30  1  0  0  0  0
 14 15  2  0  0  0  0
 15  8  1  0  0  0  0
  3  4  2  0  0  0  0
 10 16  1  0  0  0  0
 16 17  1  0  0  0  0
  7  8  1  0  0  0  0
  7  9  1  0  0  0  0
 17 18  1  0  0  0  0
 18 19  1  0  0  0  0
 19 16  1  0  0  0  0
  4  5  1  0  0  0  0
 18 20  1  0  0  0  0
  9 10  1  0  0  0  0
 20 21  1  0  0  0  0
  2  3  1  0  0  0  0
 20 22  2  0  0  0  0
  8 11  2  0  0  0  0
 21 23  1  0  0  0  0
  5  6  2  0  0  0  0
 23 24  1  0  0  0  0
 11 12  1  0  0  0  0
 23 25  1  0  0  0  0
  6  1  1  0  0  0  0
 23 26  1  0  0  0  0
 12 13  2  0  0  0  0
  1  2  2  0  0  0  0
 13 14  1  0  0  0  0
  5  7  1  0  0  0  0
M  END
> <Molecule Name>
DNDI1555054

> <CDD Number>
CDD-1535749

> <IC50_uM>
0.1215 (n=1)

$$$$

SketchEl molfile

 30 33  0  0  0  0  0  0  0  0999 V2000
    5.7161   -9.6432    0.0000 C   0  0  0  0  0  0  0  0  0  0  0  0
    5.7149  -10.4706    0.0000 C   0  0  0  0  0  0  0  0  0  0  0  0
    6.4298  -10.8835    0.0000 C   0  0  0  0  0  0  0  0  0  0  0  0
    7.1463  -10.4702    0.0000 C   0  0  0  0  0  0  0  0  0  0  0  0
    7.1434   -9.6395    0.0000 C   0  0  0  0  0  0  0  0  0  0  0  0
    6.4280   -9.2304    0.0000 C   0  0  0  0  0  0  0  0  0  0  0  0
    7.8564   -9.2243    0.0000 C   0  0  0  0  0  0  0  0  0  0  0  0
    8.5725   -9.6341    0.0000 C   0  0  0  0  0  0  0  0  0  0  0  0
    7.8532   -8.3992    0.0000 N   0  0  0  0  0  0  0  0  0  0  0  0
    8.5722  -10.4569    0.0000 C   0  0  0  0  0  0  0  0  0  0  0  0
    9.2875  -10.8666    0.0000 N   0  0  0  0  0  0  0  0  0  0  0  0
   10.0014  -10.4514    0.0000 C   0  0  0  0  0  0  0  0  0  0  0  0
    9.9956   -9.6220    0.0000 C   0  0  0  0  0  0  0  0  0  0  0  0
    9.2799   -9.2160    0.0000 C   0  0  0  0  0  0  0  0  0  0  0  0
    8.5663   -7.9841    0.0000 C   0  0  0  0  0  0  0  0  0  0  0  0
    9.2775   -8.3967    0.0000 C   0  0  0  0  0  0  0  0  0  0  0  0
    9.9883   -7.9851    0.0000 C   0  0  0  0  0  0  0  0  0  0  0  0
    9.9894   -7.1596    0.0000 N   0  0  0  0  0  0  0  0  0  0  0  0
    9.2735   -6.7476    0.0000 C   0  0  0  0  0  0  0  0  0  0  0  0
    8.5564   -7.1609    0.0000 C   0  0  0  0  0  0  0  0  0  0  0  0
   10.7040   -6.7471    0.0000 C   0  0  0  0  0  0  0  0  0  0  0  0
   11.4550   -7.0815    0.0000 N   0  0  0  0  0  0  0  0  0  0  0  0
   12.0070   -6.4684    0.0000 N   0  0  0  0  0  0  0  0  0  0  0  0
   11.5945   -5.7538    0.0000 C   0  0  0  0  0  0  0  0  0  0  0  0
   10.7875   -5.9254    0.0000 S   0  0  0  0  0  0  0  0  0  0  0  0
   11.9300   -5.0000    0.0000 C   0  0  0  0  0  0  0  0  0  0  0  0
    5.0000  -10.8826    0.0000 C   0  0  0  0  0  0  0  0  0  0  0  0
    4.2858  -10.4695    0.0000 F   0  0  0  0  0  0  0  0  0  0  0  0
    4.9994  -11.7077    0.0000 F   0  0  0  0  0  0  0  0  0  0  0  0
    4.7872  -10.0855    0.0000 F   0  0  0  0  0  0  0  0  0  0  0  0
  2 27  1  0  0  0  0
 27 28  1  0  0  0  0
 27 29  1  0  0  0  0
 27 30  1  0  0  0  0
  5  7  1  0  0  0  0
  9 15  1  0  0  0  0
 15 16  1  0  0  0  0
  3  4  2  0  0  0  0
  7  8  1  0  0  0  0
  7  9  1  0  0  0  0
  4  5  1  0  0  0  0
 15 20  1  0  0  0  0
 16 17  1  0  0  0  0
 17 18  1  0  0  0  0
 18 19  1  0  0  0  0
 19 20  1  0  0  0  0
  8 10  2  0  0  0  0
 18 21  1  0  0  0  0
 21 22  2  0  0  0  0
  2  3  1  0  0  0  0
 10 11  1  0  0  0  0
  5  6  2  0  0  0  0
 11 12  2  0  0  0  0
 22 23  1  0  0  0  0
 23 24  2  0  0  0  0
 24 25  1  0  0  0  0
 25 21  1  0  0  0  0
  6  1  1  0  0  0  0
 24 26  1  0  0  0  0
 12 13  1  0  0  0  0
  1  2  2  0  0  0  0
 13 14  2  0  0  0  0
 14  8  1  0  0  0  0
M  END
> <Molecule Name>
DNDI1562763

> <CDD Number>
CDD-1535750

> <IC50_uM>
0.0695 (n=1)

$$$$

SketchEl molfile

 30 32  0  0  0  0  0  0  0  0999 V2000
    5.7158   -8.7279    0.0000 C   0  0  0  0  0  0  0  0  0  0  0  0
    5.7146   -9.5551    0.0000 C   0  0  0  0  0  0  0  0  0  0  0  0
    6.4293   -9.9678    0.0000 C   0  0  0  0  0  0  0  0  0  0  0  0
    7.1454   -9.5546    0.0000 C   0  0  0  0  0  0  0  0  0  0  0  0
    7.1425   -8.7244    0.0000 C   0  0  0  0  0  0  0  0  0  0  0  0
    6.4275   -8.3153    0.0000 C   0  0  0  0  0  0  0  0  0  0  0  0
    7.8553   -8.3093    0.0000 C   0  0  0  0  0  0  0  0  0  0  0  0
    8.5711   -8.7190    0.0000 C   0  0  0  0  0  0  0  0  0  0  0  0
    7.8521   -7.4845    0.0000 N   0  0  0  0  0  0  0  0  0  0  0  0
    8.5649   -7.0695    0.0000 C   0  0  0  0  0  0  0  0  0  0  0  0
    9.2758   -7.4820    0.0000 C   0  0  0  0  0  0  0  0  0  0  0  0
    9.9863   -7.0705    0.0000 C   0  0  0  0  0  0  0  0  0  0  0  0
    9.9874   -6.2453    0.0000 N   0  0  0  0  0  0  0  0  0  0  0  0
    9.2718   -5.8335    0.0000 C   0  0  0  0  0  0  0  0  0  0  0  0
    8.5550   -6.2467    0.0000 C   0  0  0  0  0  0  0  0  0  0  0  0
   10.7017   -5.8330    0.0000 C   0  0  0  0  0  0  0  0  0  0  0  0
   11.4160   -6.2454    0.0000 N   0  0  0  0  0  0  0  0  0  0  0  0
   10.7017   -5.0082    0.0000 O   0  0  0  0  0  0  0  0  0  0  0  0
   12.1277   -5.8248    0.0000 C   0  0  0  0  0  0  0  0  0  0  0  0
   12.8461   -6.2298    0.0000 C   0  0  0  0  0  0  0  0  0  0  0  0
   12.1193   -5.0000    0.0000 C   0  0  0  0  0  0  0  0  0  0  0  0
   12.3493   -6.6191    0.0000 C   0  0  0  0  0  0  0  0  0  0  0  0
    8.6640   -9.5377    0.0000 C   0  0  0  0  0  0  0  0  0  0  0  0
    9.4714   -9.7061    0.0000 N   0  0  0  0  0  0  0  0  0  0  0  0
    9.8811   -8.9904    0.0000 C   0  0  0  0  0  0  0  0  0  0  0  0
    9.3268   -8.3797    0.0000 S   0  0  0  0  0  0  0  0  0  0  0  0
    5.0000   -9.9669    0.0000 C   0  0  0  0  0  0  0  0  0  0  0  0
    4.2861   -9.5539    0.0000 F   0  0  0  0  0  0  0  0  0  0  0  0
    4.9994  -10.7916    0.0000 F   0  0  0  0  0  0  0  0  0  0  0  0
    4.7873   -9.1700    0.0000 F   0  0  0  0  0  0  0  0  0  0  0  0
  2 27  1  0  0  0  0
 27 28  1  0  0  0  0
 27 29  1  0  0  0  0
 27 30  1  0  0  0  0
 13 14  1  0  0  0  0
 14 15  1  0  0  0  0
  3  4  2  0  0  0  0
 13 16  1  0  0  0  0
  7  8  1  0  0  0  0
 16 17  1  0  0  0  0
 16 18  2  0  0  0  0
  7  9  1  0  0  0  0
 17 19  1  0  0  0  0
  4  5  1  0  0  0  0
 19 20  1  0  0  0  0
  9 10  1  0  0  0  0
 19 21  1  0  0  0  0
 10 11  1  0  0  0  0
 19 22  1  0  0  0  0
  8 23  2  0  0  0  0
  2  3  1  0  0  0  0
  5  6  2  0  0  0  0
  6  1  1  0  0  0  0
  1  2  2  0  0  0  0
 23 24  1  0  0  0  0
 24 25  2  0  0  0  0
 25 26  1  0  0  0  0
 26  8  1  0  0  0  0
  5  7  1  0  0  0  0
 10 15  1  0  0  0  0
 11 12  1  0  0  0  0
 12 13  1  0  0  0  0
M  END
> <Molecule Name>
DNDI1562764

> <CDD Number>
CDD-1535751

> <IC50_uM>
0.068 (n=1)

$$$$

SketchEl molfile

 31 34  0  0  0  0  0  0  0  0999 V2000
    5.7162  -11.1242    0.0000 C   0  0  0  0  0  0  0  0  0  0  0  0
    5.7150  -11.9517    0.0000 C   0  0  0  0  0  0  0  0  0  0  0  0
    6.4301  -12.3647    0.0000 C   0  0  0  0  0  0  0  0  0  0  0  0
    7.1466  -11.9513    0.0000 C   0  0  0  0  0  0  0  0  0  0  0  0
    7.1437  -11.1205    0.0000 C   0  0  0  0  0  0  0  0  0  0  0  0
    6.4283  -10.7113    0.0000 C   0  0  0  0  0  0  0  0  0  0  0  0
    7.8569  -10.7052    0.0000 C   0  0  0  0  0  0  0  0  0  0  0  0
    8.5731  -11.1151    0.0000 C   0  0  0  0  0  0  0  0  0  0  0  0
    7.8537   -9.8800    0.0000 N   0  0  0  0  0  0  0  0  0  0  0  0
    8.5669   -9.4648    0.0000 C   0  0  0  0  0  0  0  0  0  0  0  0
    8.5637   -8.6396    0.0000 C   0  0  0  0  0  0  0  0  0  0  0  0
    9.1453   -8.0595    0.0000 C   0  0  0  0  0  0  0  0  0  0  0  0
    8.5596   -7.4782    0.0000 N   0  0  0  0  0  0  0  0  0  0  0  0
    7.9782   -8.0639    0.0000 C   0  0  0  0  0  0  0  0  0  0  0  0
    8.5728  -11.9380    0.0000 C   0  0  0  0  0  0  0  0  0  0  0  0
    9.2882  -12.3478    0.0000 N   0  0  0  0  0  0  0  0  0  0  0  0
   10.0022  -11.9325    0.0000 C   0  0  0  0  0  0  0  0  0  0  0  0
    9.9964  -11.1030    0.0000 C   0  0  0  0  0  0  0  0  0  0  0  0
    9.2806  -10.6969    0.0000 C   0  0  0  0  0  0  0  0  0  0  0  0
    8.5565   -6.6530    0.0000 C   0  0  0  0  0  0  0  0  0  0  0  0
    9.2696   -6.2377    0.0000 C   0  0  0  0  0  0  0  0  0  0  0  0
    7.8403   -6.2431    0.0000 O   0  0  0  0  0  0  0  0  0  0  0  0
    9.9828   -6.6504    0.0000 C   0  0  0  0  0  0  0  0  0  0  0  0
   10.6954   -6.2358    0.0000 C   0  0  0  0  0  0  0  0  0  0  0  0
   10.6928   -5.4097    0.0000 C   0  0  0  0  0  0  0  0  0  0  0  0
    9.9715   -5.0000    0.0000 C   0  0  0  0  0  0  0  0  0  0  0  0
    9.2620   -5.4170    0.0000 C   0  0  0  0  0  0  0  0  0  0  0  0
    5.0000  -12.3638    0.0000 C   0  0  0  0  0  0  0  0  0  0  0  0
    4.2857  -11.9506    0.0000 F   0  0  0  0  0  0  0  0  0  0  0  0
    4.9994  -13.1890    0.0000 F   0  0  0  0  0  0  0  0  0  0  0  0
    4.7871  -11.5665    0.0000 F   0  0  0  0  0  0  0  0  0  0  0  0
  2 28  1  0  0  0  0
 28 29  1  0  0  0  0
 28 30  1  0  0  0  0
 28 31  1  0  0  0  0
  8 15  2  0  0  0  0
  3  4  2  0  0  0  0
 15 16  1  0  0  0  0
  7  8  1  0  0  0  0
 16 17  2  0  0  0  0
 17 18  1  0  0  0  0
  7  9  1  0  0  0  0
 18 19  2  0  0  0  0
 19  8  1  0  0  0  0
  4  5  1  0  0  0  0
 13 20  1  0  0  0  0
  9 10  1  0  0  0  0
 20 21  1  0  0  0  0
  2  3  1  0  0  0  0
 20 22  2  0  0  0  0
 10 11  1  0  0  0  0
 21 23  2  0  0  0  0
 11 12  1  0  0  0  0
 23 24  1  0  0  0  0
  5  6  2  0  0  0  0
 24 25  2  0  0  0  0
  6  1  1  0  0  0  0
 25 26  1  0  0  0  0
  1  2  2  0  0  0  0
 26 27  2  0  0  0  0
 27 21  1  0  0  0  0
 12 13  1  0  0  0  0
 13 14  1  0  0  0  0
 14 11  1  0  0  0  0
  5  7  1  0  0  0  0
M  END
> <Molecule Name>
DNDI1562765

> <CDD Number>
CDD-1535752

> <IC50_uM>
0.067 (n=1)

$$$$

SketchEl molfile

 32 35  0  0  0  0  0  0  0  0999 V2000
   10.0007   -6.4002    0.0000 C   0  0  0  0  0  0  0  0  0  0  0  0
   10.7508   -6.0626    0.0000 N   0  0  0  0  0  0  0  0  0  0  0  0
   11.3050   -6.6752    0.0000 N   0  0  0  0  0  0  0  0  0  0  0  0
    9.2839   -5.9876    0.0000 C   0  0  0  0  0  0  0  0  0  0  0  0
   10.0840   -7.2211    0.0000 C   0  0  0  0  0  0  0  0  0  0  0  0
    8.5713   -8.8713    0.0000 N   0  0  0  0  0  0  0  0  0  0  0  0
   10.8883   -7.3920    0.0000 C   0  0  0  0  0  0  0  0  0  0  0  0
    8.5713   -6.4002    0.0000 N   0  0  0  0  0  0  0  0  0  0  0  0
    5.0000  -11.7592    0.0000 N   0  0  0  0  0  0  0  0  0  0  0  0
    8.5755   -9.6964    0.0000 C   0  0  0  0  0  0  0  0  0  0  0  0
    5.7168  -11.3550    0.0000 C   0  0  0  0  0  0  0  0  0  0  0  0
    9.2922  -10.1048    0.0000 C   0  0  0  0  0  0  0  0  0  0  0  0
    9.2839   -5.1625    0.0000 O   0  0  0  0  0  0  0  0  0  0  0  0
    7.8629  -10.1131    0.0000 C   0  0  0  0  0  0  0  0  0  0  0  0
    9.2839   -8.4588    0.0000 C   0  0  0  0  0  0  0  0  0  0  0  0
    7.8545   -8.4671    0.0000 C   0  0  0  0  0  0  0  0  0  0  0  0
   10.0048  -11.3383    0.0000 N   0  0  0  0  0  0  0  0  0  0  0  0
    8.5713   -7.2253    0.0000 C   0  0  0  0  0  0  0  0  0  0  0  0
    7.8545   -7.6378    0.0000 C   0  0  0  0  0  0  0  0  0  0  0  0
    9.2839   -7.6378    0.0000 C   0  0  0  0  0  0  0  0  0  0  0  0
    7.1461   -9.7006    0.0000 C   0  0  0  0  0  0  0  0  0  0  0  0
    7.8629  -10.9424    0.0000 C   0  0  0  0  0  0  0  0  0  0  0  0
    6.4335  -10.9424    0.0000 C   0  0  0  0  0  0  0  0  0  0  0  0
   10.9216   -5.2583    0.0000 C   0  0  0  0  0  0  0  0  0  0  0  0
    7.1461  -11.3550    0.0000 C   0  0  0  0  0  0  0  0  0  0  0  0
    6.4335  -10.1173    0.0000 C   0  0  0  0  0  0  0  0  0  0  0  0
    9.2922  -10.9299    0.0000 C   0  0  0  0  0  0  0  0  0  0  0  0
   11.2258   -8.1462    0.0000 C   0  0  0  0  0  0  0  0  0  0  0  0
    9.9965   -9.6881    0.0000 C   0  0  0  0  0  0  0  0  0  0  0  0
   10.7216  -10.9216    0.0000 C   0  0  0  0  0  0  0  0  0  0  0  0
   11.7051   -5.0000    0.0000 C   0  0  0  0  0  0  0  0  0  0  0  0
   10.7133  -10.0923    0.0000 C   0  0  0  0  0  0  0  0  0  0  0  0
  2  1  1  0  0  0  0
  3  2  1  0  0  0  0
  4  1  1  0  0  0  0
  5  1  2  0  0  0  0
  6 16  1  0  0  0  0
  7  5  1  0  0  0  0
  8  4  1  0  0  0  0
  9 11  3  0  0  0  0
 10  6  1  0  0  0  0
 11 23  1  0  0  0  0
 12 10  1  0  0  0  0
 13  4  2  0  0  0  0
 14 10  1  0  0  0  0
 15 20  1  0  0  0  0
 16 19  1  0  0  0  0
 17 27  1  0  0  0  0
 18  8  1  0  0  0  0
 19 18  1  0  0  0  0
 20 18  1  0  0  0  0
 21 14  2  0  0  0  0
 22 14  1  0  0  0  0
 23 26  2  0  0  0  0
 24  2  1  0  0  0  0
 25 22  2  0  0  0  0
 26 21  1  0  0  0  0
 27 12  2  0  0  0  0
 28  7  1  0  0  0  0
 29 12  1  0  0  0  0
 30 32  1  0  0  0  0
 31 24  1  0  0  0  0
 32 29  2  0  0  0  0
  3  7  2  0  0  0  0
 15  6  1  0  0  0  0
 25 23  1  0  0  0  0
 30 17  2  0  0  0  0
M  END
> <Molecule Name>
DNDI1562766

> <CDD Number>
CDD-1535753

> <IC50_uM>
0.504 (n=1)

$$$$

SketchEl molfile

 30 33  0  0  0  0  0  0  0  0999 V2000
   10.0018   -6.2379    0.0000 C   0  0  0  0  0  0  0  0  0  0  0  0
    9.2849   -5.8253    0.0000 C   0  0  0  0  0  0  0  0  0  0  0  0
   10.7521   -5.9003    0.0000 N   0  0  0  0  0  0  0  0  0  0  0  0
   10.0852   -7.0591    0.0000 N   0  0  0  0  0  0  0  0  0  0  0  0
    8.5721   -8.7097    0.0000 N   0  0  0  0  0  0  0  0  0  0  0  0
    8.5721   -6.2379    0.0000 N   0  0  0  0  0  0  0  0  0  0  0  0
    5.0000  -11.5982    0.0000 N   0  0  0  0  0  0  0  0  0  0  0  0
    8.5763   -9.5350    0.0000 C   0  0  0  0  0  0  0  0  0  0  0  0
   10.8896   -7.2300    0.0000 C   0  0  0  0  0  0  0  0  0  0  0  0
    5.7169  -11.1939    0.0000 C   0  0  0  0  0  0  0  0  0  0  0  0
   11.3023   -6.5130    0.0000 C   0  0  0  0  0  0  0  0  0  0  0  0
    9.2932   -9.9434    0.0000 C   0  0  0  0  0  0  0  0  0  0  0  0
    9.2849   -5.0000    0.0000 O   0  0  0  0  0  0  0  0  0  0  0  0
    7.8635   -9.9518    0.0000 C   0  0  0  0  0  0  0  0  0  0  0  0
    9.2849   -8.2970    0.0000 C   0  0  0  0  0  0  0  0  0  0  0  0
    7.8552   -8.3054    0.0000 C   0  0  0  0  0  0  0  0  0  0  0  0
   10.0060  -11.1772    0.0000 N   0  0  0  0  0  0  0  0  0  0  0  0
    8.5721   -7.0632    0.0000 C   0  0  0  0  0  0  0  0  0  0  0  0
    7.8552   -7.4759    0.0000 C   0  0  0  0  0  0  0  0  0  0  0  0
    9.2849   -7.4759    0.0000 C   0  0  0  0  0  0  0  0  0  0  0  0
    7.1466   -9.5391    0.0000 C   0  0  0  0  0  0  0  0  0  0  0  0
    7.8635  -10.7812    0.0000 C   0  0  0  0  0  0  0  0  0  0  0  0
    6.4338  -10.7812    0.0000 C   0  0  0  0  0  0  0  0  0  0  0  0
    6.4338   -9.9559    0.0000 C   0  0  0  0  0  0  0  0  0  0  0  0
    7.1466  -11.1939    0.0000 C   0  0  0  0  0  0  0  0  0  0  0  0
    9.2932  -10.7687    0.0000 C   0  0  0  0  0  0  0  0  0  0  0  0
   10.9230   -5.0959    0.0000 C   0  0  0  0  0  0  0  0  0  0  0  0
    9.9976   -9.5266    0.0000 C   0  0  0  0  0  0  0  0  0  0  0  0
   10.7229  -10.7604    0.0000 C   0  0  0  0  0  0  0  0  0  0  0  0
   10.7145   -9.9309    0.0000 C   0  0  0  0  0  0  0  0  0  0  0  0
  2  1  1  0  0  0  0
  3  1  1  0  0  0  0
  4  1  2  0  0  0  0
  5 16  1  0  0  0  0
  6  2  1  0  0  0  0
  7 10  3  0  0  0  0
  8  5  1  0  0  0  0
  9  4  1  0  0  0  0
 10 23  1  0  0  0  0
 11  3  1  0  0  0  0
 12  8  1  0  0  0  0
 13  2  2  0  0  0  0
 14  8  1  0  0  0  0
 15 20  1  0  0  0  0
 16 19  1  0  0  0  0
 17 26  1  0  0  0  0
 18  6  1  0  0  0  0
 19 18  1  0  0  0  0
 20 18  1  0  0  0  0
 21 14  2  0  0  0  0
 22 14  1  0  0  0  0
 23 24  2  0  0  0  0
 24 21  1  0  0  0  0
 25 22  2  0  0  0  0
 26 12  2  0  0  0  0
 27  3  1  0  0  0  0
 28 12  1  0  0  0  0
 29 30  1  0  0  0  0
 30 28  2  0  0  0  0
 11  9  2  0  0  0  0
 15  5  1  0  0  0  0
 25 23  1  0  0  0  0
 29 17  2  0  0  0  0
M  END
> <Molecule Name>
DNDI1562767

> <CDD Number>
CDD-1535754

> <IC50_uM>
0.239 (n=1)

$$$$

SketchEl molfile

 34 37  0  0  0  0  0  0  0  0999 V2000
    6.4358   -9.9515    0.0000 C   0  0  0  0  0  0  0  0  0  0  0  0
    6.4347  -10.7787    0.0000 C   0  0  0  0  0  0  0  0  0  0  0  0
    7.1494  -11.1915    0.0000 C   0  0  0  0  0  0  0  0  0  0  0  0
    7.8657  -10.7782    0.0000 C   0  0  0  0  0  0  0  0  0  0  0  0
    7.8629   -9.9478    0.0000 C   0  0  0  0  0  0  0  0  0  0  0  0
    7.1476   -9.5387    0.0000 C   0  0  0  0  0  0  0  0  0  0  0  0
    8.5757   -9.5326    0.0000 C   0  0  0  0  0  0  0  0  0  0  0  0
    9.2916   -9.9424    0.0000 C   0  0  0  0  0  0  0  0  0  0  0  0
    8.5726   -8.7077    0.0000 N   0  0  0  0  0  0  0  0  0  0  0  0
    9.2914  -10.7650    0.0000 C   0  0  0  0  0  0  0  0  0  0  0  0
   10.0064  -11.1746    0.0000 N   0  0  0  0  0  0  0  0  0  0  0  0
   10.7202  -10.7595    0.0000 C   0  0  0  0  0  0  0  0  0  0  0  0
   10.7145   -9.9303    0.0000 C   0  0  0  0  0  0  0  0  0  0  0  0
    9.9988   -9.5243    0.0000 C   0  0  0  0  0  0  0  0  0  0  0  0
    5.7200  -11.1906    0.0000 C   0  0  0  0  0  0  0  0  0  0  0  0
    5.0000  -11.5970    0.0000 N   0  0  0  0  0  0  0  0  0  0  0  0
    9.2866   -8.2971    0.0000 C   0  0  0  0  0  0  0  0  0  0  0  0
    9.2855   -7.4758    0.0000 C   0  0  0  0  0  0  0  0  0  0  0  0
    8.5714   -7.0622    0.0000 C   0  0  0  0  0  0  0  0  0  0  0  0
    7.8567   -7.4761    0.0000 C   0  0  0  0  0  0  0  0  0  0  0  0
    7.8562   -8.3037    0.0000 C   0  0  0  0  0  0  0  0  0  0  0  0
    8.5714   -6.2374    0.0000 N   0  0  0  0  0  0  0  0  0  0  0  0
    9.2858   -5.8249    0.0000 C   0  0  0  0  0  0  0  0  0  0  0  0
    9.2858   -5.0000    0.0000 O   0  0  0  0  0  0  0  0  0  0  0  0
   10.0001   -6.2374    0.0000 C   0  0  0  0  0  0  0  0  0  0  0  0
   10.0885   -7.0565    0.0000 C   0  0  0  0  0  0  0  0  0  0  0  0
   10.8954   -7.2280    0.0000 N   0  0  0  0  0  0  0  0  0  0  0  0
   11.3078   -6.5136    0.0000 N   0  0  0  0  0  0  0  0  0  0  0  0
   10.7558   -5.9007    0.0000 C   0  0  0  0  0  0  0  0  0  0  0  0
   11.2309   -7.9816    0.0000 C   0  0  0  0  0  0  0  0  0  0  0  0
   10.9272   -5.0938    0.0000 C   0  0  0  0  0  0  0  0  0  0  0  0
   11.7116   -4.8387    0.0000 F   0  0  0  0  0  0  0  0  0  0  0  0
   10.3141   -4.5419    0.0000 F   0  0  0  0  0  0  0  0  0  0  0  0
   11.6622   -5.4682    0.0000 F   0  0  0  0  0  0  0  0  0  0  0  0
 29 31  1  0  0  0  0
 31 32  1  0  0  0  0
 31 33  1  0  0  0  0
 31 34  1  0  0  0  0
  9 17  1  0  0  0  0
  7  8  1  0  0  0  0
  7  9  1  0  0  0  0
  4  5  1  0  0  0  0
  8 10  2  0  0  0  0
  9 21  1  0  0  0  0
 17 18  1  0  0  0  0
 18 19  1  0  0  0  0
 19 20  1  0  0  0  0
 20 21  1  0  0  0  0
  2  3  1  0  0  0  0
 19 22  1  0  0  0  0
 10 11  1  0  0  0  0
 22 23  1  0  0  0  0
  5  6  2  0  0  0  0
 23 24  2  0  0  0  0
 11 12  2  0  0  0  0
 23 25  1  0  0  0  0
 25 26  2  0  0  0  0
  6  1  1  0  0  0  0
 12 13  1  0  0  0  0
  1  2  2  0  0  0  0
 13 14  2  0  0  0  0
 26 27  1  0  0  0  0
 27 28  1  0  0  0  0
 28 29  2  0  0  0  0
 29 25  1  0  0  0  0
 14  8  1  0  0  0  0
 27 30  1  0  0  0  0
  5  7  1  0  0  0  0
  2 15  1  0  0  0  0
  3  4  2  0  0  0  0
 15 16  3  0  0  0  0
M  END
> <Molecule Name>
DNDI1562768

> <CDD Number>
CDD-1535755

> <IC50_uM>
0.0285 (n=1)

$$$$

SketchEl molfile

 30 33  0  0  0  0  0  0  0  0999 V2000
    9.9985   -6.2372    0.0000 C   0  0  0  0  0  0  0  0  0  0  0  0
    9.2821   -5.8248    0.0000 C   0  0  0  0  0  0  0  0  0  0  0  0
   11.3065   -6.5121    0.0000 N   0  0  0  0  0  0  0  0  0  0  0  0
   10.0860   -7.0578    0.0000 C   0  0  0  0  0  0  0  0  0  0  0  0
   10.8941   -7.2285    0.0000 N   0  0  0  0  0  0  0  0  0  0  0  0
    8.5698   -8.7073    0.0000 N   0  0  0  0  0  0  0  0  0  0  0  0
   10.7525   -5.8998    0.0000 C   0  0  0  0  0  0  0  0  0  0  0  0
    8.5698   -6.2372    0.0000 N   0  0  0  0  0  0  0  0  0  0  0  0
    5.0000  -11.5981    0.0000 N   0  0  0  0  0  0  0  0  0  0  0  0
    8.5740   -9.5320    0.0000 C   0  0  0  0  0  0  0  0  0  0  0  0
    5.7165  -11.1899    0.0000 C   0  0  0  0  0  0  0  0  0  0  0  0
    9.2904   -9.9402    0.0000 C   0  0  0  0  0  0  0  0  0  0  0  0
    7.8617   -9.9486    0.0000 C   0  0  0  0  0  0  0  0  0  0  0  0
    7.8533   -8.3032    0.0000 C   0  0  0  0  0  0  0  0  0  0  0  0
    9.2821   -8.2949    0.0000 C   0  0  0  0  0  0  0  0  0  0  0  0
    9.2821   -5.0000    0.0000 O   0  0  0  0  0  0  0  0  0  0  0  0
   10.0027  -11.1732    0.0000 N   0  0  0  0  0  0  0  0  0  0  0  0
    8.5698   -7.0619    0.0000 C   0  0  0  0  0  0  0  0  0  0  0  0
    7.8533   -7.4743    0.0000 C   0  0  0  0  0  0  0  0  0  0  0  0
    9.2821   -7.4743    0.0000 C   0  0  0  0  0  0  0  0  0  0  0  0
    7.1452   -9.5362    0.0000 C   0  0  0  0  0  0  0  0  0  0  0  0
    7.8617  -10.7775    0.0000 C   0  0  0  0  0  0  0  0  0  0  0  0
    6.4329  -10.7775    0.0000 C   0  0  0  0  0  0  0  0  0  0  0  0
    6.4329   -9.9486    0.0000 C   0  0  0  0  0  0  0  0  0  0  0  0
    7.1452  -11.1899    0.0000 C   0  0  0  0  0  0  0  0  0  0  0  0
    9.2904  -10.7650    0.0000 C   0  0  0  0  0  0  0  0  0  0  0  0
   11.2274   -7.9825    0.0000 C   0  0  0  0  0  0  0  0  0  0  0  0
    9.9944   -9.5237    0.0000 C   0  0  0  0  0  0  0  0  0  0  0  0
   10.7192  -10.7567    0.0000 C   0  0  0  0  0  0  0  0  0  0  0  0
   10.7108   -9.9278    0.0000 C   0  0  0  0  0  0  0  0  0  0  0  0
  2  1  1  0  0  0  0
  3  7  2  0  0  0  0
  4  1  2  0  0  0  0
  5  4  1  0  0  0  0
  6 14  1  0  0  0  0
  7  1  1  0  0  0  0
  8  2  1  0  0  0  0
  9 11  3  0  0  0  0
 10  6  1  0  0  0  0
 11 23  1  0  0  0  0
 12 10  1  0  0  0  0
 13 10  1  0  0  0  0
 14 19  1  0  0  0  0
 15 20  1  0  0  0  0
 16  2  2  0  0  0  0
 17 26  1  0  0  0  0
 18  8  1  0  0  0  0
 19 18  1  0  0  0  0
 20 18  1  0  0  0  0
 21 13  2  0  0  0  0
 22 13  1  0  0  0  0
 23 24  2  0  0  0  0
 24 21  1  0  0  0  0
 25 22  2  0  0  0  0
 26 12  2  0  0  0  0
 27  5  1  0  0  0  0
 28 12  1  0  0  0  0
 29 30  1  0  0  0  0
 30 28  2  0  0  0  0
  3  5  1  0  0  0  0
 15  6  1  0  0  0  0
 25 23  1  0  0  0  0
 29 17  2  0  0  0  0
M  END
> <Molecule Name>
DNDI1562769

> <CDD Number>
CDD-1535756

> <IC50_uM>
0.169 (n=1)

$$$$

SketchEl molfile

 29 31  0  0  0  0  0  0  0  0999 V2000
   11.4165   -5.8250    0.0000 C   0  0  0  0  0  0  0  0  0  0  0  0
    5.7125   -9.9624    0.0000 C   0  0  0  0  0  0  0  0  0  0  0  0
   10.7041   -6.2375    0.0000 N   0  0  0  0  0  0  0  0  0  0  0  0
    9.2874   -8.7124    0.0000 C   0  0  0  0  0  0  0  0  0  0  0  0
    8.5708   -8.3041    0.0000 C   0  0  0  0  0  0  0  0  0  0  0  0
   10.1874   -9.6999    0.0000 N   0  0  0  0  0  0  0  0  0  0  0  0
   10.0416   -8.3749    0.0000 S   0  0  0  0  0  0  0  0  0  0  0  0
    8.5666   -7.4791    0.0000 N   0  0  0  0  0  0  0  0  0  0  0  0
   10.5957   -8.9833    0.0000 C   0  0  0  0  0  0  0  0  0  0  0  0
   12.1332   -6.2375    0.0000 C   0  0  0  0  0  0  0  0  0  0  0  0
    6.4291   -9.5499    0.0000 C   0  0  0  0  0  0  0  0  0  0  0  0
    9.3791   -9.5333    0.0000 C   0  0  0  0  0  0  0  0  0  0  0  0
    7.8583   -8.7208    0.0000 C   0  0  0  0  0  0  0  0  0  0  0  0
   10.6999   -7.0666    0.0000 C   0  0  0  0  0  0  0  0  0  0  0  0
    9.9874   -5.8292    0.0000 C   0  0  0  0  0  0  0  0  0  0  0  0
   11.4165   -5.0000    0.0000 O   0  0  0  0  0  0  0  0  0  0  0  0
    7.1416   -9.9624    0.0000 C   0  0  0  0  0  0  0  0  0  0  0  0
    6.4291   -8.7249    0.0000 C   0  0  0  0  0  0  0  0  0  0  0  0
    7.8583   -9.5499    0.0000 C   0  0  0  0  0  0  0  0  0  0  0  0
    7.1416   -8.3083    0.0000 C   0  0  0  0  0  0  0  0  0  0  0  0
    5.7125  -10.7874    0.0000 F   0  0  0  0  0  0  0  0  0  0  0  0
    5.5000   -9.1666    0.0000 F   0  0  0  0  0  0  0  0  0  0  0  0
    5.0000   -9.5499    0.0000 F   0  0  0  0  0  0  0  0  0  0  0  0
    9.2707   -6.2417    0.0000 C   0  0  0  0  0  0  0  0  0  0  0  0
    9.9916   -7.4750    0.0000 C   0  0  0  0  0  0  0  0  0  0  0  0
    9.2791   -7.0625    0.0000 C   0  0  0  0  0  0  0  0  0  0  0  0
   12.1332   -7.0625    0.0000 C   0  0  0  0  0  0  0  0  0  0  0  0
   12.8457   -5.8250    0.0000 C   0  0  0  0  0  0  0  0  0  0  0  0
   11.5499   -6.8250    0.0000 C   0  0  0  0  0  0  0  0  0  0  0  0
  2 11  1  0  0  0  0
  3  1  1  0  0  0  0
  4  5  1  0  0  0  0
  5  8  1  0  0  0  0
  6 12  1  0  0  0  0
  7  4  1  0  0  0  0
  8 26  1  0  0  0  0
  9  7  1  0  0  0  0
 10  1  1  0  0  0  0
 11 18  2  0  0  0  0
 12  4  2  0  0  0  0
 13  5  1  0  0  0  0
 14  3  1  0  0  0  0
 15  3  1  0  0  0  0
 16  1  2  0  0  0  0
 17 19  2  0  0  0  0
 18 20  1  0  0  0  0
 19 13  1  0  0  0  0
 20 13  2  0  0  0  0
 21  2  1  0  0  0  0
 22  2  1  0  0  0  0
 23  2  1  0  0  0  0
 24 15  1  0  0  0  0
 25 14  1  0  0  0  0
 26 24  1  0  0  0  0
 27 10  1  0  0  0  0
 28 10  1  0  0  0  0
 29 10  1  0  0  0  0
 25 26  1  0  0  0  0
  9  6  2  0  0  0  0
 17 11  1  0  0  0  0
M  END
> <Molecule Name>
DNDI1564269

> <CDD Number>
CDD-1535757

> <IC50_uM>
0.034 (n=1)

$$$$

SketchEl molfile

 30 33  0  0  0  0  0  0  0  0999 V2000
   11.4176   -5.9960    0.0000 C   0  0  0  0  0  0  0  0  0  0  0  0
   11.5051   -5.1709    0.0000 N   0  0  0  0  0  0  0  0  0  0  0  0
   12.1719   -6.3294    0.0000 S   0  0  0  0  0  0  0  0  0  0  0  0
   10.7050   -6.4085    0.0000 N   0  0  0  0  0  0  0  0  0  0  0  0
    5.7126  -10.1341    0.0000 C   0  0  0  0  0  0  0  0  0  0  0  0
    8.5713   -8.4755    0.0000 C   0  0  0  0  0  0  0  0  0  0  0  0
   12.3094   -5.0000    0.0000 C   0  0  0  0  0  0  0  0  0  0  0  0
   12.7219   -5.7168    0.0000 C   0  0  0  0  0  0  0  0  0  0  0  0
    8.5672   -7.6504    0.0000 N   0  0  0  0  0  0  0  0  0  0  0  0
    6.4294   -9.7215    0.0000 C   0  0  0  0  0  0  0  0  0  0  0  0
    9.2881   -8.8839    0.0000 C   0  0  0  0  0  0  0  0  0  0  0  0
    7.8587   -8.8922    0.0000 C   0  0  0  0  0  0  0  0  0  0  0  0
    9.9882   -6.0002    0.0000 C   0  0  0  0  0  0  0  0  0  0  0  0
   10.7008   -7.2378    0.0000 C   0  0  0  0  0  0  0  0  0  0  0  0
   10.0007  -10.1174    0.0000 N   0  0  0  0  0  0  0  0  0  0  0  0
    6.4294   -8.8922    0.0000 C   0  0  0  0  0  0  0  0  0  0  0  0
    7.1420  -10.1341    0.0000 C   0  0  0  0  0  0  0  0  0  0  0  0
    7.1420   -8.4797    0.0000 C   0  0  0  0  0  0  0  0  0  0  0  0
    7.8587   -9.7215    0.0000 C   0  0  0  0  0  0  0  0  0  0  0  0
    5.0000   -9.7215    0.0000 F   0  0  0  0  0  0  0  0  0  0  0  0
    5.7126  -10.9592    0.0000 F   0  0  0  0  0  0  0  0  0  0  0  0
    5.5001   -9.3381    0.0000 F   0  0  0  0  0  0  0  0  0  0  0  0
    9.9924   -7.6462    0.0000 C   0  0  0  0  0  0  0  0  0  0  0  0
    9.2715   -6.4127    0.0000 C   0  0  0  0  0  0  0  0  0  0  0  0
    9.2798   -7.2337    0.0000 C   0  0  0  0  0  0  0  0  0  0  0  0
    9.2881   -9.7090    0.0000 C   0  0  0  0  0  0  0  0  0  0  0  0
   13.5429   -5.8001    0.0000 C   0  0  0  0  0  0  0  0  0  0  0  0
    9.9924   -8.4672    0.0000 C   0  0  0  0  0  0  0  0  0  0  0  0
   10.7175   -9.7007    0.0000 C   0  0  0  0  0  0  0  0  0  0  0  0
   10.7092   -8.8714    0.0000 C   0  0  0  0  0  0  0  0  0  0  0  0
  2  1  2  0  0  0  0
  3  1  1  0  0  0  0
  4  1  1  0  0  0  0
  5 10  1  0  0  0  0
  6  9  1  0  0  0  0
  7  2  1  0  0  0  0
  8  3  1  0  0  0  0
  9 25  1  0  0  0  0
 10 16  2  0  0  0  0
 11  6  1  0  0  0  0
 12  6  1  0  0  0  0
 13  4  1  0  0  0  0
 14  4  1  0  0  0  0
 15 26  1  0  0  0  0
 16 18  1  0  0  0  0
 17 19  2  0  0  0  0
 18 12  2  0  0  0  0
 19 12  1  0  0  0  0
 20  5  1  0  0  0  0
 21  5  1  0  0  0  0
 22  5  1  0  0  0  0
 23 14  1  0  0  0  0
 24 13  1  0  0  0  0
 25 24  1  0  0  0  0
 26 11  2  0  0  0  0
 27  8  1  0  0  0  0
 28 11  1  0  0  0  0
 29 30  1  0  0  0  0
 30 28  2  0  0  0  0
  7  8  2  0  0  0  0
 23 25  1  0  0  0  0
 17 10  1  0  0  0  0
 29 15  2  0  0  0  0
M  END
> <Molecule Name>
DNDI1564270

> <CDD Number>
CDD-1535758

> <IC50_uM>
0.029 (n=1)

$$$$

SketchEl molfile

 30 33  0  0  0  0  0  0  0  0999 V2000
    7.1463   -9.1301    0.0000 C   0  0  0  0  0  0  0  0  0  0  0  0
    7.8590   -8.7134    0.0000 C   0  0  0  0  0  0  0  0  0  0  0  0
    9.9928   -6.6462    0.0000 N   0  0  0  0  0  0  0  0  0  0  0  0
   10.7055   -6.2337    0.0000 C   0  0  0  0  0  0  0  0  0  0  0  0
    6.4295   -8.7176    0.0000 C   0  0  0  0  0  0  0  0  0  0  0  0
    7.8548   -7.8882    0.0000 N   0  0  0  0  0  0  0  0  0  0  0  0
    7.1463   -9.9595    0.0000 C   0  0  0  0  0  0  0  0  0  0  0  0
    5.7168   -9.1301    0.0000 C   0  0  0  0  0  0  0  0  0  0  0  0
    8.5758   -9.1218    0.0000 C   0  0  0  0  0  0  0  0  0  0  0  0
    9.2760   -6.2378    0.0000 C   0  0  0  0  0  0  0  0  0  0  0  0
    9.9886   -7.4756    0.0000 C   0  0  0  0  0  0  0  0  0  0  0  0
   11.4140   -6.6504    0.0000 C   0  0  0  0  0  0  0  0  0  0  0  0
   10.6971   -5.4168    0.0000 C   0  0  0  0  0  0  0  0  0  0  0  0
    9.2885  -10.3554    0.0000 N   0  0  0  0  0  0  0  0  0  0  0  0
    9.2801   -7.8840    0.0000 C   0  0  0  0  0  0  0  0  0  0  0  0
    8.5591   -6.6504    0.0000 C   0  0  0  0  0  0  0  0  0  0  0  0
    8.5675   -7.4714    0.0000 C   0  0  0  0  0  0  0  0  0  0  0  0
    5.7168   -9.9595    0.0000 C   0  0  0  0  0  0  0  0  0  0  0  0
    6.4253   -7.8924    0.0000 F   0  0  0  0  0  0  0  0  0  0  0  0
    6.4295  -10.3721    0.0000 C   0  0  0  0  0  0  0  0  0  0  0  0
   11.4140   -7.4756    0.0000 F   0  0  0  0  0  0  0  0  0  0  0  0
    9.9803   -5.0084    0.0000 F   0  0  0  0  0  0  0  0  0  0  0  0
    5.0000  -10.3721    0.0000 Cl  0  0  0  0  0  0  0  0  0  0  0  0
    8.5758   -9.9470    0.0000 C   0  0  0  0  0  0  0  0  0  0  0  0
   12.1308   -5.4126    0.0000 C   0  0  0  0  0  0  0  0  0  0  0  0
    9.2801   -8.7051    0.0000 C   0  0  0  0  0  0  0  0  0  0  0  0
   11.4098   -5.0000    0.0000 C   0  0  0  0  0  0  0  0  0  0  0  0
   12.1308   -6.2378    0.0000 C   0  0  0  0  0  0  0  0  0  0  0  0
   10.0053   -9.9387    0.0000 C   0  0  0  0  0  0  0  0  0  0  0  0
    9.9970   -9.1093    0.0000 C   0  0  0  0  0  0  0  0  0  0  0  0
  2  1  1  0  0  0  0
  3 10  1  0  0  0  0
  4  3  1  0  0  0  0
  5  1  2  0  0  0  0
  6  2  1  0  0  0  0
  7  1  1  0  0  0  0
  8  5  1  0  0  0  0
  9  2  1  0  0  0  0
 10 16  1  0  0  0  0
 11 15  1  0  0  0  0
 12  4  2  0  0  0  0
 13  4  1  0  0  0  0
 14 24  1  0  0  0  0
 15 17  1  0  0  0  0
 16 17  1  0  0  0  0
 17  6  1  0  0  0  0
 18  8  2  0  0  0  0
 19  5  1  0  0  0  0
 20  7  2  0  0  0  0
 21 12  1  0  0  0  0
 22 13  1  0  0  0  0
 23 18  1  0  0  0  0
 24  9  2  0  0  0  0
 25 27  1  0  0  0  0
 26  9  1  0  0  0  0
 27 13  2  0  0  0  0
 28 12  1  0  0  0  0
 29 30  1  0  0  0  0
 30 26  2  0  0  0  0
 20 18  1  0  0  0  0
  3 11  1  0  0  0  0
 29 14  2  0  0  0  0
 25 28  2  0  0  0  0
M  END
> <Molecule Name>
DNDI1564271

> <CDD Number>
CDD-1535759

> <IC50_uM>
0.0125 (n=1)

$$$$

SketchEl molfile

 32 35  0  0  0  0  0  0  0  0999 V2000
   12.1335   -6.2375    0.0000 C   0  0  0  0  0  0  0  0  0  0  0  0
   11.4168   -5.8250    0.0000 C   0  0  0  0  0  0  0  0  0  0  0  0
   10.7043   -6.2375    0.0000 N   0  0  0  0  0  0  0  0  0  0  0  0
   13.4419   -6.5167    0.0000 N   0  0  0  0  0  0  0  0  0  0  0  0
    5.7125   -9.9626    0.0000 C   0  0  0  0  0  0  0  0  0  0  0  0
   12.2210   -7.0583    0.0000 C   0  0  0  0  0  0  0  0  0  0  0  0
   13.0294   -7.2292    0.0000 N   0  0  0  0  0  0  0  0  0  0  0  0
   12.8919   -5.9041    0.0000 C   0  0  0  0  0  0  0  0  0  0  0  0
    8.5709   -8.3042    0.0000 C   0  0  0  0  0  0  0  0  0  0  0  0
    8.5668   -7.4792    0.0000 N   0  0  0  0  0  0  0  0  0  0  0  0
    6.4292   -9.5501    0.0000 C   0  0  0  0  0  0  0  0  0  0  0  0
    9.2876   -8.7125    0.0000 C   0  0  0  0  0  0  0  0  0  0  0  0
    7.8584   -8.7209    0.0000 C   0  0  0  0  0  0  0  0  0  0  0  0
   11.4168   -5.0000    0.0000 O   0  0  0  0  0  0  0  0  0  0  0  0
    9.9876   -5.8291    0.0000 C   0  0  0  0  0  0  0  0  0  0  0  0
   10.7001   -7.0667    0.0000 C   0  0  0  0  0  0  0  0  0  0  0  0
   10.0001   -9.9459    0.0000 N   0  0  0  0  0  0  0  0  0  0  0  0
    6.4292   -8.7209    0.0000 C   0  0  0  0  0  0  0  0  0  0  0  0
    7.1417   -9.9626    0.0000 C   0  0  0  0  0  0  0  0  0  0  0  0
    7.1417   -8.3084    0.0000 C   0  0  0  0  0  0  0  0  0  0  0  0
    7.8584   -9.5501    0.0000 C   0  0  0  0  0  0  0  0  0  0  0  0
    5.5000   -9.1667    0.0000 F   0  0  0  0  0  0  0  0  0  0  0  0
    5.0000   -9.5501    0.0000 F   0  0  0  0  0  0  0  0  0  0  0  0
    5.7125  -10.7876    0.0000 F   0  0  0  0  0  0  0  0  0  0  0  0
    9.9918   -7.4750    0.0000 C   0  0  0  0  0  0  0  0  0  0  0  0
    9.2709   -6.2417    0.0000 C   0  0  0  0  0  0  0  0  0  0  0  0
    9.2793   -7.0625    0.0000 C   0  0  0  0  0  0  0  0  0  0  0  0
    9.2876   -9.5376    0.0000 C   0  0  0  0  0  0  0  0  0  0  0  0
   13.3669   -7.9834    0.0000 C   0  0  0  0  0  0  0  0  0  0  0  0
    9.9918   -8.2959    0.0000 C   0  0  0  0  0  0  0  0  0  0  0  0
   10.7168   -9.5292    0.0000 C   0  0  0  0  0  0  0  0  0  0  0  0
   10.7085   -8.7000    0.0000 C   0  0  0  0  0  0  0  0  0  0  0  0
  2  1  1  0  0  0  0
  3  2  1  0  0  0  0
  4  8  2  0  0  0  0
  5 11  1  0  0  0  0
  6  1  2  0  0  0  0
  7  6  1  0  0  0  0
  8  1  1  0  0  0  0
  9 10  1  0  0  0  0
 10 27  1  0  0  0  0
 11 18  2  0  0  0  0
 12  9  1  0  0  0  0
 13  9  1  0  0  0  0
 14  2  2  0  0  0  0
 15  3  1  0  0  0  0
 16  3  1  0  0  0  0
 17 28  1  0  0  0  0
 18 20  1  0  0  0  0
 19 21  2  0  0  0  0
 20 13  2  0  0  0  0
 21 13  1  0  0  0  0
 22  5  1  0  0  0  0
 23  5  1  0  0  0  0
 24  5  1  0  0  0  0
 25 16  1  0  0  0  0
 26 15  1  0  0  0  0
 27 26  1  0  0  0  0
 28 12  2  0  0  0  0
 29  7  1  0  0  0  0
 30 12  1  0  0  0  0
 31 32  1  0  0  0  0
 32 30  2  0  0  0  0
  4  7  1  0  0  0  0
 25 27  1  0  0  0  0
 19 11  1  0  0  0  0
 31 17  2  0  0  0  0
M  END
> <Molecule Name>
DNDI1564272

> <CDD Number>
CDD-1535760

> <IC50_uM>
0.3845 (n=1)

$$$$

SketchEl molfile

 31 34  0  0  0  0  0  0  0  0999 V2000
   12.1339   -6.2418    0.0000 C   0  0  0  0  0  0  0  0  0  0  0  0
   11.4172   -5.8251    0.0000 C   0  0  0  0  0  0  0  0  0  0  0  0
   10.7046   -6.2376    0.0000 N   0  0  0  0  0  0  0  0  0  0  0  0
    5.7126   -9.9629    0.0000 C   0  0  0  0  0  0  0  0  0  0  0  0
   12.2214   -7.0585    0.0000 N   0  0  0  0  0  0  0  0  0  0  0  0
    8.5711   -8.3045    0.0000 C   0  0  0  0  0  0  0  0  0  0  0  0
   13.0298   -7.2294    0.0000 N   0  0  0  0  0  0  0  0  0  0  0  0
   12.8923   -5.9043    0.0000 C   0  0  0  0  0  0  0  0  0  0  0  0
    8.5670   -7.4794    0.0000 N   0  0  0  0  0  0  0  0  0  0  0  0
    6.4293   -9.5504    0.0000 C   0  0  0  0  0  0  0  0  0  0  0  0
    9.2879   -8.7128    0.0000 C   0  0  0  0  0  0  0  0  0  0  0  0
    7.8586   -8.7212    0.0000 C   0  0  0  0  0  0  0  0  0  0  0  0
   13.4424   -6.5168    0.0000 C   0  0  0  0  0  0  0  0  0  0  0  0
   10.7005   -7.0669    0.0000 C   0  0  0  0  0  0  0  0  0  0  0  0
    9.9879   -5.8293    0.0000 C   0  0  0  0  0  0  0  0  0  0  0  0
   11.4172   -5.0000    0.0000 O   0  0  0  0  0  0  0  0  0  0  0  0
   10.0004   -9.9463    0.0000 N   0  0  0  0  0  0  0  0  0  0  0  0
    6.4293   -8.7212    0.0000 C   0  0  0  0  0  0  0  0  0  0  0  0
    7.1418   -9.9629    0.0000 C   0  0  0  0  0  0  0  0  0  0  0  0
    7.1418   -8.3086    0.0000 C   0  0  0  0  0  0  0  0  0  0  0  0
    7.8586   -9.5504    0.0000 C   0  0  0  0  0  0  0  0  0  0  0  0
    5.5000   -9.1670    0.0000 F   0  0  0  0  0  0  0  0  0  0  0  0
    5.0000   -9.5504    0.0000 F   0  0  0  0  0  0  0  0  0  0  0  0
    5.7126  -10.7880    0.0000 F   0  0  0  0  0  0  0  0  0  0  0  0
    9.9921   -7.4752    0.0000 C   0  0  0  0  0  0  0  0  0  0  0  0
    9.2712   -6.2418    0.0000 C   0  0  0  0  0  0  0  0  0  0  0  0
    9.2795   -7.0627    0.0000 C   0  0  0  0  0  0  0  0  0  0  0  0
    9.2879   -9.5379    0.0000 C   0  0  0  0  0  0  0  0  0  0  0  0
    9.9921   -8.2961    0.0000 C   0  0  0  0  0  0  0  0  0  0  0  0
   10.7171   -9.5296    0.0000 C   0  0  0  0  0  0  0  0  0  0  0  0
   10.7088   -8.7003    0.0000 C   0  0  0  0  0  0  0  0  0  0  0  0
  2  1  1  0  0  0  0
  3  2  1  0  0  0  0
  4 10  1  0  0  0  0
  5  1  2  0  0  0  0
  6  9  1  0  0  0  0
  7  5  1  0  0  0  0
  8  1  1  0  0  0  0
  9 27  1  0  0  0  0
 10 18  2  0  0  0  0
 11  6  1  0  0  0  0
 12  6  1  0  0  0  0
 13  8  2  0  0  0  0
 14  3  1  0  0  0  0
 15  3  1  0  0  0  0
 16  2  2  0  0  0  0
 17 28  1  0  0  0  0
 18 20  1  0  0  0  0
 19 21  2  0  0  0  0
 20 12  2  0  0  0  0
 21 12  1  0  0  0  0
 22  4  1  0  0  0  0
 23  4  1  0  0  0  0
 24  4  1  0  0  0  0
 25 14  1  0  0  0  0
 26 15  1  0  0  0  0
 27 26  1  0  0  0  0
 28 11  2  0  0  0  0
 29 11  1  0  0  0  0
 30 31  1  0  0  0  0
 31 29  2  0  0  0  0
 13  7  1  0  0  0  0
 25 27  1  0  0  0  0
 19 10  1  0  0  0  0
 30 17  2  0  0  0  0
M  END
> <Molecule Name>
DNDI1564273

> <CDD Number>
CDD-1535761

> <IC50_uM>
0.2945 (n=1)

$$$$

SketchEl molfile

 36 39  0  0  0  0  0  0  0  0999 V2000
   12.1343   -6.6960    0.0000 C   0  0  0  0  0  0  0  0  0  0  0  0
   12.8928   -6.3585    0.0000 C   0  0  0  0  0  0  0  0  0  0  0  0
   11.4176   -6.2793    0.0000 C   0  0  0  0  0  0  0  0  0  0  0  0
   13.4428   -6.9711    0.0000 N   0  0  0  0  0  0  0  0  0  0  0  0
   13.0636   -5.5500    0.0000 C   0  0  0  0  0  0  0  0  0  0  0  0
   12.2218   -7.5128    0.0000 C   0  0  0  0  0  0  0  0  0  0  0  0
   13.0303   -7.6837    0.0000 N   0  0  0  0  0  0  0  0  0  0  0  0
   10.7050   -6.6919    0.0000 N   0  0  0  0  0  0  0  0  0  0  0  0
    5.7126  -10.4174    0.0000 C   0  0  0  0  0  0  0  0  0  0  0  0
    8.5713   -8.7588    0.0000 C   0  0  0  0  0  0  0  0  0  0  0  0
    8.5672   -7.9337    0.0000 N   0  0  0  0  0  0  0  0  0  0  0  0
    6.4294  -10.0048    0.0000 C   0  0  0  0  0  0  0  0  0  0  0  0
    9.2881   -9.1672    0.0000 C   0  0  0  0  0  0  0  0  0  0  0  0
   11.4176   -5.4542    0.0000 O   0  0  0  0  0  0  0  0  0  0  0  0
    7.8587   -9.1755    0.0000 C   0  0  0  0  0  0  0  0  0  0  0  0
   10.7008   -7.5211    0.0000 C   0  0  0  0  0  0  0  0  0  0  0  0
    9.9882   -6.2835    0.0000 C   0  0  0  0  0  0  0  0  0  0  0  0
   10.0007  -10.4007    0.0000 N   0  0  0  0  0  0  0  0  0  0  0  0
   13.8471   -5.2958    0.0000 F   0  0  0  0  0  0  0  0  0  0  0  0
   12.4510   -5.0000    0.0000 F   0  0  0  0  0  0  0  0  0  0  0  0
   13.7971   -5.9251    0.0000 F   0  0  0  0  0  0  0  0  0  0  0  0
    6.4294   -9.1755    0.0000 C   0  0  0  0  0  0  0  0  0  0  0  0
    7.1420  -10.4174    0.0000 C   0  0  0  0  0  0  0  0  0  0  0  0
    7.1420   -8.7630    0.0000 C   0  0  0  0  0  0  0  0  0  0  0  0
    7.8587  -10.0048    0.0000 C   0  0  0  0  0  0  0  0  0  0  0  0
    5.0000  -10.0048    0.0000 F   0  0  0  0  0  0  0  0  0  0  0  0
    5.7126  -11.2425    0.0000 F   0  0  0  0  0  0  0  0  0  0  0  0
    5.5001   -9.6214    0.0000 F   0  0  0  0  0  0  0  0  0  0  0  0
    9.9924   -7.9295    0.0000 C   0  0  0  0  0  0  0  0  0  0  0  0
    9.2714   -6.6960    0.0000 C   0  0  0  0  0  0  0  0  0  0  0  0
    9.2798   -7.5170    0.0000 C   0  0  0  0  0  0  0  0  0  0  0  0
    9.2881   -9.9923    0.0000 C   0  0  0  0  0  0  0  0  0  0  0  0
   13.3678   -8.4379    0.0000 C   0  0  0  0  0  0  0  0  0  0  0  0
    9.9924   -8.7505    0.0000 C   0  0  0  0  0  0  0  0  0  0  0  0
   10.7175   -9.9840    0.0000 C   0  0  0  0  0  0  0  0  0  0  0  0
   10.7091   -9.1547    0.0000 C   0  0  0  0  0  0  0  0  0  0  0  0
  2  1  1  0  0  0  0
  3  1  1  0  0  0  0
  4  2  2  0  0  0  0
  5  2  1  0  0  0  0
  6  1  2  0  0  0  0
  7  6  1  0  0  0  0
  8  3  1  0  0  0  0
  9 12  1  0  0  0  0
 10 11  1  0  0  0  0
 11 31  1  0  0  0  0
 12 22  2  0  0  0  0
 13 10  1  0  0  0  0
 14  3  2  0  0  0  0
 15 10  1  0  0  0  0
 16  8  1  0  0  0  0
 17  8  1  0  0  0  0
 18 32  1  0  0  0  0
 19  5  1  0  0  0  0
 20  5  1  0  0  0  0
 21  5  1  0  0  0  0
 22 24  1  0  0  0  0
 23 25  2  0  0  0  0
 24 15  2  0  0  0  0
 25 15  1  0  0  0  0
 26  9  1  0  0  0  0
 27  9  1  0  0  0  0
 28  9  1  0  0  0  0
 29 16  1  0  0  0  0
 30 17  1  0  0  0  0
 31 30  1  0  0  0  0
 32 13  2  0  0  0  0
 33  7  1  0  0  0  0
 34 13  1  0  0  0  0
 35 36  1  0  0  0  0
 36 34  2  0  0  0  0
  4  7  1  0  0  0  0
 29 31  1  0  0  0  0
 23 12  1  0  0  0  0
 35 18  2  0  0  0  0
M  END
> <Molecule Name>
DNDI1564274

> <CDD Number>
CDD-1535762

> <IC50_uM>
0.0995 (n=1)

$$$$

SketchEl molfile

 32 35  0  0  0  0  0  0  0  0999 V2000
   12.1344   -6.2419    0.0000 C   0  0  0  0  0  0  0  0  0  0  0  0
   11.4176   -5.8251    0.0000 C   0  0  0  0  0  0  0  0  0  0  0  0
   10.7050   -6.2377    0.0000 N   0  0  0  0  0  0  0  0  0  0  0  0
   12.2219   -7.0587    0.0000 N   0  0  0  0  0  0  0  0  0  0  0  0
    5.7126   -9.9633    0.0000 C   0  0  0  0  0  0  0  0  0  0  0  0
   12.8929   -5.9043    0.0000 N   0  0  0  0  0  0  0  0  0  0  0  0
    8.5714   -8.3047    0.0000 C   0  0  0  0  0  0  0  0  0  0  0  0
    8.5672   -7.4796    0.0000 N   0  0  0  0  0  0  0  0  0  0  0  0
   13.4430   -6.5169    0.0000 C   0  0  0  0  0  0  0  0  0  0  0  0
    6.4294   -9.5507    0.0000 C   0  0  0  0  0  0  0  0  0  0  0  0
    9.2882   -8.7131    0.0000 C   0  0  0  0  0  0  0  0  0  0  0  0
   13.0304   -7.2295    0.0000 C   0  0  0  0  0  0  0  0  0  0  0  0
    7.8588   -8.7214    0.0000 C   0  0  0  0  0  0  0  0  0  0  0  0
   11.4176   -5.0000    0.0000 O   0  0  0  0  0  0  0  0  0  0  0  0
    9.9883   -5.8293    0.0000 C   0  0  0  0  0  0  0  0  0  0  0  0
   10.7009   -7.0670    0.0000 C   0  0  0  0  0  0  0  0  0  0  0  0
   10.0008   -9.9466    0.0000 N   0  0  0  0  0  0  0  0  0  0  0  0
    6.4294   -8.7214    0.0000 C   0  0  0  0  0  0  0  0  0  0  0  0
    7.1420   -9.9633    0.0000 C   0  0  0  0  0  0  0  0  0  0  0  0
    7.1420   -8.3089    0.0000 C   0  0  0  0  0  0  0  0  0  0  0  0
    7.8588   -9.5507    0.0000 C   0  0  0  0  0  0  0  0  0  0  0  0
    5.5001   -9.1673    0.0000 F   0  0  0  0  0  0  0  0  0  0  0  0
    5.0000   -9.5507    0.0000 F   0  0  0  0  0  0  0  0  0  0  0  0
    5.7126  -10.7884    0.0000 F   0  0  0  0  0  0  0  0  0  0  0  0
    9.9924   -7.4754    0.0000 C   0  0  0  0  0  0  0  0  0  0  0  0
    9.2715   -6.2419    0.0000 C   0  0  0  0  0  0  0  0  0  0  0  0
    9.2798   -7.0628    0.0000 C   0  0  0  0  0  0  0  0  0  0  0  0
    9.2882   -9.5382    0.0000 C   0  0  0  0  0  0  0  0  0  0  0  0
   11.6135   -7.6129    0.0000 C   0  0  0  0  0  0  0  0  0  0  0  0
    9.9924   -8.2964    0.0000 C   0  0  0  0  0  0  0  0  0  0  0  0
   10.7175   -9.5299    0.0000 C   0  0  0  0  0  0  0  0  0  0  0  0
   10.7092   -8.7006    0.0000 C   0  0  0  0  0  0  0  0  0  0  0  0
  2  1  1  0  0  0  0
  3  2  1  0  0  0  0
  4  1  1  0  0  0  0
  5 10  1  0  0  0  0
  6  1  2  0  0  0  0
  7  8  1  0  0  0  0
  8 27  1  0  0  0  0
  9  6  1  0  0  0  0
 10 18  2  0  0  0  0
 11  7  1  0  0  0  0
 12  4  1  0  0  0  0
 13  7  1  0  0  0  0
 14  2  2  0  0  0  0
 15  3  1  0  0  0  0
 16  3  1  0  0  0  0
 17 28  1  0  0  0  0
 18 20  1  0  0  0  0
 19 21  2  0  0  0  0
 20 13  2  0  0  0  0
 21 13  1  0  0  0  0
 22  5  1  0  0  0  0
 23  5  1  0  0  0  0
 24  5  1  0  0  0  0
 25 16  1  0  0  0  0
 26 15  1  0  0  0  0
 27 26  1  0  0  0  0
 28 11  2  0  0  0  0
 29  4  1  0  0  0  0
 30 11  1  0  0  0  0
 31 32  1  0  0  0  0
 32 30  2  0  0  0  0
  9 12  2  0  0  0  0
 25 27  1  0  0  0  0
 19 10  1  0  0  0  0
 31 17  2  0  0  0  0
M  END
> <Molecule Name>
DNDI1564275

> <CDD Number>
CDD-1535763

> <IC50_uM>
0.0815 (n=1)

$$$$

SketchEl molfile

 34 37  0  0  0  0  0  0  0  0999 V2000
   12.1336   -6.4001    0.0000 C   0  0  0  0  0  0  0  0  0  0  0  0
   12.8920   -6.0626    0.0000 N   0  0  0  0  0  0  0  0  0  0  0  0
   11.4170   -5.9834    0.0000 C   0  0  0  0  0  0  0  0  0  0  0  0
   13.4420   -6.6751    0.0000 N   0  0  0  0  0  0  0  0  0  0  0  0
   12.2212   -7.2168    0.0000 C   0  0  0  0  0  0  0  0  0  0  0  0
   10.7044   -6.3959    0.0000 N   0  0  0  0  0  0  0  0  0  0  0  0
    5.7125  -10.1211    0.0000 C   0  0  0  0  0  0  0  0  0  0  0  0
   13.0295   -7.3876    0.0000 C   0  0  0  0  0  0  0  0  0  0  0  0
    8.5710   -8.4627    0.0000 C   0  0  0  0  0  0  0  0  0  0  0  0
    8.5668   -7.6376    0.0000 N   0  0  0  0  0  0  0  0  0  0  0  0
    6.4292   -9.7085    0.0000 C   0  0  0  0  0  0  0  0  0  0  0  0
    9.2877   -8.8710    0.0000 C   0  0  0  0  0  0  0  0  0  0  0  0
   11.4170   -5.1583    0.0000 O   0  0  0  0  0  0  0  0  0  0  0  0
    7.8585   -8.8793    0.0000 C   0  0  0  0  0  0  0  0  0  0  0  0
    9.9877   -5.9875    0.0000 C   0  0  0  0  0  0  0  0  0  0  0  0
   10.7003   -7.2251    0.0000 C   0  0  0  0  0  0  0  0  0  0  0  0
   10.0002  -10.1044    0.0000 N   0  0  0  0  0  0  0  0  0  0  0  0
    6.4292   -8.8793    0.0000 C   0  0  0  0  0  0  0  0  0  0  0  0
    7.1418  -10.1211    0.0000 C   0  0  0  0  0  0  0  0  0  0  0  0
    7.1418   -8.4668    0.0000 C   0  0  0  0  0  0  0  0  0  0  0  0
    7.8585   -9.7085    0.0000 C   0  0  0  0  0  0  0  0  0  0  0  0
    5.5000   -9.3252    0.0000 F   0  0  0  0  0  0  0  0  0  0  0  0
    5.0000   -9.7085    0.0000 F   0  0  0  0  0  0  0  0  0  0  0  0
    5.7125  -10.9461    0.0000 F   0  0  0  0  0  0  0  0  0  0  0  0
    9.9919   -7.6335    0.0000 C   0  0  0  0  0  0  0  0  0  0  0  0
    9.2710   -6.4001    0.0000 C   0  0  0  0  0  0  0  0  0  0  0  0
    9.2794   -7.2209    0.0000 C   0  0  0  0  0  0  0  0  0  0  0  0
   13.0629   -5.2542    0.0000 C   0  0  0  0  0  0  0  0  0  0  0  0
    9.2877   -9.6960    0.0000 C   0  0  0  0  0  0  0  0  0  0  0  0
   13.3670   -8.1418    0.0000 C   0  0  0  0  0  0  0  0  0  0  0  0
    9.9919   -8.4543    0.0000 C   0  0  0  0  0  0  0  0  0  0  0  0
   10.7169   -9.6877    0.0000 C   0  0  0  0  0  0  0  0  0  0  0  0
   13.8462   -5.0000    0.0000 C   0  0  0  0  0  0  0  0  0  0  0  0
   10.7086   -8.8585    0.0000 C   0  0  0  0  0  0  0  0  0  0  0  0
  2  1  1  0  0  0  0
  3  1  1  0  0  0  0
  4  2  1  0  0  0  0
  5  1  2  0  0  0  0
  6  3  1  0  0  0  0
  7 11  1  0  0  0  0
  8  5  1  0  0  0  0
  9 10  1  0  0  0  0
 10 27  1  0  0  0  0
 11 18  2  0  0  0  0
 12  9  1  0  0  0  0
 13  3  2  0  0  0  0
 14  9  1  0  0  0  0
 15  6  1  0  0  0  0
 16  6  1  0  0  0  0
 17 29  1  0  0  0  0
 18 20  1  0  0  0  0
 19 21  2  0  0  0  0
 20 14  2  0  0  0  0
 21 14  1  0  0  0  0
 22  7  1  0  0  0  0
 23  7  1  0  0  0  0
 24  7  1  0  0  0  0
 25 16  1  0  0  0  0
 26 15  1  0  0  0  0
 27 26  1  0  0  0  0
 28  2  1  0  0  0  0
 29 12  2  0  0  0  0
 30  8  1  0  0  0  0
 31 12  1  0  0  0  0
 32 34  1  0  0  0  0
 33 28  1  0  0  0  0
 34 31  2  0  0  0  0
  4  8  2  0  0  0  0
 25 27  1  0  0  0  0
 19 11  1  0  0  0  0
 32 17  2  0  0  0  0
M  END
> <Molecule Name>
DNDI1564276

> <CDD Number>
CDD-1535764

> <IC50_uM>
0.0705 (n=1)

$$$$

SketchEl molfile

 27 29  0  0  0  0  0  0  0  0999 V2000
    8.5707   -7.4707    0.0000 C   0  0  0  0  0  0  0  0  0  0  0  0
    9.2874   -7.8791    0.0000 C   0  0  0  0  0  0  0  0  0  0  0  0
    8.5666   -6.6458    0.0000 C   0  0  0  0  0  0  0  0  0  0  0  0
    5.7125   -9.1290    0.0000 C   0  0  0  0  0  0  0  0  0  0  0  0
    9.9915   -7.4624    0.0000 C   0  0  0  0  0  0  0  0  0  0  0  0
    9.2874   -8.7040    0.0000 C   0  0  0  0  0  0  0  0  0  0  0  0
   10.7081   -7.8666    0.0000 C   0  0  0  0  0  0  0  0  0  0  0  0
    6.4291   -8.7165    0.0000 C   0  0  0  0  0  0  0  0  0  0  0  0
    7.8582   -7.8874    0.0000 C   0  0  0  0  0  0  0  0  0  0  0  0
    9.2790   -5.4125    0.0000 N   0  0  0  0  0  0  0  0  0  0  0  0
    7.8541   -6.2416    0.0000 C   0  0  0  0  0  0  0  0  0  0  0  0
    6.4291   -7.8874    0.0000 C   0  0  0  0  0  0  0  0  0  0  0  0
    7.1416   -9.1290    0.0000 C   0  0  0  0  0  0  0  0  0  0  0  0
    7.1416   -7.4749    0.0000 C   0  0  0  0  0  0  0  0  0  0  0  0
    7.8582   -8.7165    0.0000 C   0  0  0  0  0  0  0  0  0  0  0  0
    5.0000   -8.7165    0.0000 F   0  0  0  0  0  0  0  0  0  0  0  0
    5.7125   -9.9540    0.0000 F   0  0  0  0  0  0  0  0  0  0  0  0
    5.5000   -8.3332    0.0000 F   0  0  0  0  0  0  0  0  0  0  0  0
    9.2832   -6.2333    0.0000 C   0  0  0  0  0  0  0  0  0  0  0  0
   10.7165   -8.6957    0.0000 C   0  0  0  0  0  0  0  0  0  0  0  0
    8.5666   -8.2957    0.0000 O   0  0  0  0  0  0  0  0  0  0  0  0
    9.9873   -6.6374    0.0000 F   0  0  0  0  0  0  0  0  0  0  0  0
    7.8457   -5.4208    0.0000 C   0  0  0  0  0  0  0  0  0  0  0  0
    9.9998   -9.1124    0.0000 C   0  0  0  0  0  0  0  0  0  0  0  0
   11.4331   -9.1082    0.0000 Cl  0  0  0  0  0  0  0  0  0  0  0  0
    7.1291   -5.0125    0.0000 Cl  0  0  0  0  0  0  0  0  0  0  0  0
    8.5624   -5.0000    0.0000 C   0  0  0  0  0  0  0  0  0  0  0  0
  2  1  1  0  0  0  0
  3  1  1  0  0  0  0
  4  8  1  0  0  0  0
  5  2  1  0  0  0  0
  6  2  2  0  0  0  0
  7  5  2  0  0  0  0
  8 12  2  0  0  0  0
  9  1  1  0  0  0  0
 10 19  1  0  0  0  0
 11  3  1  0  0  0  0
 12 14  1  0  0  0  0
 13 15  2  0  0  0  0
 14  9  2  0  0  0  0
 15  9  1  0  0  0  0
 16  4  1  0  0  0  0
 17  4  1  0  0  0  0
 18  4  1  0  0  0  0
 19  3  2  0  0  0  0
 20 24  2  0  0  0  0
 21  1  1  0  0  0  0
 22  5  1  0  0  0  0
 23 11  2  0  0  0  0
 24  6  1  0  0  0  0
 25 20  1  0  0  0  0
 26 23  1  0  0  0  0
 27 23  1  0  0  0  0
 13  8  1  0  0  0  0
 27 10  2  0  0  0  0
  7 20  1  0  0  0  0
M  END
> <Molecule Name>
DNDI1574837

> <CDD Number>
CDD-1535765

> <IC50_uM>
> 1.0 (n=1)

$$$$

SketchEl molfile

 28 30  0  0  0  0  0  0  0  0999 V2000
    8.5710   -8.2835    0.0000 C   0  0  0  0  0  0  0  0  0  0  0  0
    9.2877   -8.6919    0.0000 C   0  0  0  0  0  0  0  0  0  0  0  0
    8.5669   -7.4585    0.0000 C   0  0  0  0  0  0  0  0  0  0  0  0
    5.7125   -9.9420    0.0000 C   0  0  0  0  0  0  0  0  0  0  0  0
    9.9919   -8.2752    0.0000 C   0  0  0  0  0  0  0  0  0  0  0  0
    9.2877   -9.5169    0.0000 C   0  0  0  0  0  0  0  0  0  0  0  0
   10.7086   -8.6794    0.0000 C   0  0  0  0  0  0  0  0  0  0  0  0
    6.4292   -9.5294    0.0000 C   0  0  0  0  0  0  0  0  0  0  0  0
    7.8585   -8.7002    0.0000 C   0  0  0  0  0  0  0  0  0  0  0  0
    9.2794   -6.2251    0.0000 N   0  0  0  0  0  0  0  0  0  0  0  0
    7.8543   -7.0543    0.0000 C   0  0  0  0  0  0  0  0  0  0  0  0
    6.4292   -8.7044    0.0000 C   0  0  0  0  0  0  0  0  0  0  0  0
    7.1418   -9.9420    0.0000 C   0  0  0  0  0  0  0  0  0  0  0  0
    7.1418   -8.2877    0.0000 C   0  0  0  0  0  0  0  0  0  0  0  0
    7.8585   -9.5294    0.0000 C   0  0  0  0  0  0  0  0  0  0  0  0
    5.0000   -9.5294    0.0000 F   0  0  0  0  0  0  0  0  0  0  0  0
    5.7125  -10.7670    0.0000 F   0  0  0  0  0  0  0  0  0  0  0  0
    5.5000   -9.1461    0.0000 F   0  0  0  0  0  0  0  0  0  0  0  0
    9.2836   -7.0460    0.0000 C   0  0  0  0  0  0  0  0  0  0  0  0
   10.7170   -9.5086    0.0000 C   0  0  0  0  0  0  0  0  0  0  0  0
    8.5669   -9.1086    0.0000 O   0  0  0  0  0  0  0  0  0  0  0  0
    9.9878   -7.4502    0.0000 F   0  0  0  0  0  0  0  0  0  0  0  0
   10.0003   -9.9253    0.0000 C   0  0  0  0  0  0  0  0  0  0  0  0
    7.8460   -6.2334    0.0000 C   0  0  0  0  0  0  0  0  0  0  0  0
   11.4337   -9.9211    0.0000 Cl  0  0  0  0  0  0  0  0  0  0  0  0
    8.5627   -5.8126    0.0000 C   0  0  0  0  0  0  0  0  0  0  0  0
    7.1293   -5.8251    0.0000 O   0  0  0  0  0  0  0  0  0  0  0  0
    7.1251   -5.0000    0.0000 C   0  0  0  0  0  0  0  0  0  0  0  0
  2  1  1  0  0  0  0
  3  1  1  0  0  0  0
  4  8  1  0  0  0  0
  5  2  1  0  0  0  0
  6  2  2  0  0  0  0
  7  5  2  0  0  0  0
  8 12  2  0  0  0  0
  9  1  1  0  0  0  0
 10 19  1  0  0  0  0
 11  3  1  0  0  0  0
 12 14  1  0  0  0  0
 13 15  2  0  0  0  0
 14  9  2  0  0  0  0
 15  9  1  0  0  0  0
 16  4  1  0  0  0  0
 17  4  1  0  0  0  0
 18  4  1  0  0  0  0
 19  3  2  0  0  0  0
 20 23  2  0  0  0  0
 21  1  1  0  0  0  0
 22  5  1  0  0  0  0
 23  6  1  0  0  0  0
 24 11  2  0  0  0  0
 25 20  1  0  0  0  0
 26 24  1  0  0  0  0
 27 24  1  0  0  0  0
 28 27  1  0  0  0  0
 13  8  1  0  0  0  0
 26 10  2  0  0  0  0
  7 20  1  0  0  0  0
M  END
> <Molecule Name>
DNDI1574838

> <CDD Number>
CDD-1535766

> <IC50_uM>
0.1225 (n=1)

$$$$

SketchEl molfile

 31 34  0  0  0  0  0  0  0  0999 V2000
   11.4174   -5.8251    0.0000 C   0  0  0  0  0  0  0  0  0  0  0  0
    5.7126   -9.9631    0.0000 C   0  0  0  0  0  0  0  0  0  0  0  0
   10.7048   -6.2377    0.0000 N   0  0  0  0  0  0  0  0  0  0  0  0
    9.2880   -8.7130    0.0000 C   0  0  0  0  0  0  0  0  0  0  0  0
    8.5713   -8.3046    0.0000 C   0  0  0  0  0  0  0  0  0  0  0  0
   10.1881   -9.7006    0.0000 N   0  0  0  0  0  0  0  0  0  0  0  0
   10.0423   -8.3754    0.0000 S   0  0  0  0  0  0  0  0  0  0  0  0
    8.5671   -7.4795    0.0000 N   0  0  0  0  0  0  0  0  0  0  0  0
   10.5965   -8.9838    0.0000 C   0  0  0  0  0  0  0  0  0  0  0  0
    6.4293   -9.5506    0.0000 C   0  0  0  0  0  0  0  0  0  0  0  0
    9.3797   -9.5339    0.0000 C   0  0  0  0  0  0  0  0  0  0  0  0
    7.8587   -8.7213    0.0000 C   0  0  0  0  0  0  0  0  0  0  0  0
   10.7007   -7.0669    0.0000 C   0  0  0  0  0  0  0  0  0  0  0  0
    9.9881   -5.8293    0.0000 C   0  0  0  0  0  0  0  0  0  0  0  0
   11.4174   -5.0000    0.0000 O   0  0  0  0  0  0  0  0  0  0  0  0
   12.1342   -6.2418    0.0000 C   0  0  0  0  0  0  0  0  0  0  0  0
    7.1419   -9.9631    0.0000 C   0  0  0  0  0  0  0  0  0  0  0  0
    6.4293   -8.7213    0.0000 C   0  0  0  0  0  0  0  0  0  0  0  0
    7.8587   -9.5506    0.0000 C   0  0  0  0  0  0  0  0  0  0  0  0
    7.1419   -8.3087    0.0000 C   0  0  0  0  0  0  0  0  0  0  0  0
    5.0000   -9.5506    0.0000 F   0  0  0  0  0  0  0  0  0  0  0  0
    5.7126  -10.7882    0.0000 F   0  0  0  0  0  0  0  0  0  0  0  0
    5.5001   -9.1672    0.0000 F   0  0  0  0  0  0  0  0  0  0  0  0
    9.2713   -6.2418    0.0000 C   0  0  0  0  0  0  0  0  0  0  0  0
    9.9923   -7.4753    0.0000 C   0  0  0  0  0  0  0  0  0  0  0  0
    9.2797   -7.0628    0.0000 C   0  0  0  0  0  0  0  0  0  0  0  0
   12.1300   -7.0628    0.0000 C   0  0  0  0  0  0  0  0  0  0  0  0
   12.8426   -5.8251    0.0000 C   0  0  0  0  0  0  0  0  0  0  0  0
   13.5552   -6.2335    0.0000 C   0  0  0  0  0  0  0  0  0  0  0  0
   12.8426   -7.4753    0.0000 C   0  0  0  0  0  0  0  0  0  0  0  0
   13.5593   -7.0628    0.0000 C   0  0  0  0  0  0  0  0  0  0  0  0
  2 10  1  0  0  0  0
  3  1  1  0  0  0  0
  4  5  1  0  0  0  0
  5  8  1  0  0  0  0
  6 11  1  0  0  0  0
  7  4  1  0  0  0  0
  8 26  1  0  0  0  0
  9  7  1  0  0  0  0
 10 18  2  0  0  0  0
 11  4  2  0  0  0  0
 12  5  1  0  0  0  0
 13  3  1  0  0  0  0
 14  3  1  0  0  0  0
 15  1  2  0  0  0  0
 16  1  1  0  0  0  0
 17 19  2  0  0  0  0
 18 20  1  0  0  0  0
 19 12  1  0  0  0  0
 20 12  2  0  0  0  0
 21  2  1  0  0  0  0
 22  2  1  0  0  0  0
 23  2  1  0  0  0  0
 24 14  1  0  0  0  0
 25 13  1  0  0  0  0
 26 24  1  0  0  0  0
 27 16  2  0  0  0  0
 28 16  1  0  0  0  0
 29 28  2  0  0  0  0
 30 27  1  0  0  0  0
 31 29  1  0  0  0  0
 31 30  2  0  0  0  0
 25 26  1  0  0  0  0
  9  6  2  0  0  0  0
 17 10  1  0  0  0  0
M  END
> <Molecule Name>
DNDI1574839

> <CDD Number>
CDD-1535767

> <IC50_uM>
0.033 (n=1)

$$$$

SketchEl molfile

 34 37  0  0  0  0  0  0  0  0999 V2000
    9.9983   -6.6953    0.0000 C   0  0  0  0  0  0  0  0  0  0  0  0
   10.7522   -6.3579    0.0000 N   0  0  0  0  0  0  0  0  0  0  0  0
   11.3062   -6.9702    0.0000 N   0  0  0  0  0  0  0  0  0  0  0  0
    9.2819   -6.2829    0.0000 C   0  0  0  0  0  0  0  0  0  0  0  0
   10.0858   -7.5159    0.0000 C   0  0  0  0  0  0  0  0  0  0  0  0
    8.5696   -9.1653    0.0000 N   0  0  0  0  0  0  0  0  0  0  0  0
   10.8939   -7.6866    0.0000 C   0  0  0  0  0  0  0  0  0  0  0  0
    8.5696   -6.6953    0.0000 N   0  0  0  0  0  0  0  0  0  0  0  0
   10.9230   -5.5540    0.0000 C   0  0  0  0  0  0  0  0  0  0  0  0
    5.0000  -12.0560    0.0000 N   0  0  0  0  0  0  0  0  0  0  0  0
    8.5738   -9.9900    0.0000 C   0  0  0  0  0  0  0  0  0  0  0  0
    5.7164  -11.6478    0.0000 C   0  0  0  0  0  0  0  0  0  0  0  0
    9.2902  -10.3982    0.0000 C   0  0  0  0  0  0  0  0  0  0  0  0
    9.2819   -5.4582    0.0000 O   0  0  0  0  0  0  0  0  0  0  0  0
    7.8615  -10.4066    0.0000 C   0  0  0  0  0  0  0  0  0  0  0  0
    7.8532   -8.7613    0.0000 C   0  0  0  0  0  0  0  0  0  0  0  0
    9.2819   -8.7529    0.0000 C   0  0  0  0  0  0  0  0  0  0  0  0
   10.0025  -11.6311    0.0000 N   0  0  0  0  0  0  0  0  0  0  0  0
    8.5696   -7.5200    0.0000 C   0  0  0  0  0  0  0  0  0  0  0  0
    7.8532   -7.9324    0.0000 C   0  0  0  0  0  0  0  0  0  0  0  0
    9.2819   -7.9324    0.0000 C   0  0  0  0  0  0  0  0  0  0  0  0
    7.8615  -11.2354    0.0000 C   0  0  0  0  0  0  0  0  0  0  0  0
    7.1451   -9.9942    0.0000 C   0  0  0  0  0  0  0  0  0  0  0  0
    6.4329  -11.2354    0.0000 C   0  0  0  0  0  0  0  0  0  0  0  0
    7.1451  -11.6478    0.0000 C   0  0  0  0  0  0  0  0  0  0  0  0
    6.4329  -10.4066    0.0000 C   0  0  0  0  0  0  0  0  0  0  0  0
    9.2902  -11.2229    0.0000 C   0  0  0  0  0  0  0  0  0  0  0  0
   11.2271   -8.4406    0.0000 C   0  0  0  0  0  0  0  0  0  0  0  0
   10.3107   -5.0000    0.0000 C   0  0  0  0  0  0  0  0  0  0  0  0
   11.6603   -5.9247    0.0000 C   0  0  0  0  0  0  0  0  0  0  0  0
   11.7102   -5.2958    0.0000 C   0  0  0  0  0  0  0  0  0  0  0  0
    9.9942   -9.9817    0.0000 C   0  0  0  0  0  0  0  0  0  0  0  0
   10.7189  -11.2146    0.0000 C   0  0  0  0  0  0  0  0  0  0  0  0
   10.7106  -10.3857    0.0000 C   0  0  0  0  0  0  0  0  0  0  0  0
  2  1  1  0  0  0  0
  3  2  1  0  0  0  0
  4  1  1  0  0  0  0
  5  1  2  0  0  0  0
  6 16  1  0  0  0  0
  7  5  1  0  0  0  0
  8  4  1  0  0  0  0
  9  2  1  0  0  0  0
 10 12  3  0  0  0  0
 11  6  1  0  0  0  0
 12 24  1  0  0  0  0
 13 11  1  0  0  0  0
 14  4  2  0  0  0  0
 15 11  1  0  0  0  0
 16 20  1  0  0  0  0
 17 21  1  0  0  0  0
 18 27  1  0  0  0  0
 19  8  1  0  0  0  0
 20 19  1  0  0  0  0
 21 19  1  0  0  0  0
 22 15  1  0  0  0  0
 23 15  2  0  0  0  0
 24 26  2  0  0  0  0
 25 22  2  0  0  0  0
 26 23  1  0  0  0  0
 27 13  2  0  0  0  0
 28  7  1  0  0  0  0
 29  9  1  0  0  0  0
 30  9  1  0  0  0  0
 31  9  1  0  0  0  0
 32 13  1  0  0  0  0
 33 34  1  0  0  0  0
 34 32  2  0  0  0  0
  3  7  2  0  0  0  0
 17  6  1  0  0  0  0
 25 24  1  0  0  0  0
 33 18  2  0  0  0  0
M  END
> <Molecule Name>
DNDI1574840

> <CDD Number>
CDD-1535768

> <IC50_uM>
0.062 (n=1)

$$$$

SketchEl molfile

 27 29  0  0  0  0  0  0  0  0999 V2000
    8.5705   -8.2956    0.0000 C   0  0  0  0  0  0  0  0  0  0  0  0
    8.5664   -7.4706    0.0000 C   0  0  0  0  0  0  0  0  0  0  0  0
    9.2871   -8.7039    0.0000 C   0  0  0  0  0  0  0  0  0  0  0  0
    5.7124   -9.9538    0.0000 C   0  0  0  0  0  0  0  0  0  0  0  0
    7.8539   -7.0665    0.0000 C   0  0  0  0  0  0  0  0  0  0  0  0
    9.2830   -7.0582    0.0000 C   0  0  0  0  0  0  0  0  0  0  0  0
    7.8456   -6.2457    0.0000 C   0  0  0  0  0  0  0  0  0  0  0  0
    6.4290   -9.5413    0.0000 C   0  0  0  0  0  0  0  0  0  0  0  0
    7.8581   -8.7122    0.0000 C   0  0  0  0  0  0  0  0  0  0  0  0
    9.9996   -9.9371    0.0000 N   0  0  0  0  0  0  0  0  0  0  0  0
    9.9913   -8.2872    0.0000 C   0  0  0  0  0  0  0  0  0  0  0  0
    6.4290   -8.7122    0.0000 C   0  0  0  0  0  0  0  0  0  0  0  0
    7.1415   -9.9538    0.0000 C   0  0  0  0  0  0  0  0  0  0  0  0
    7.1415   -8.2997    0.0000 C   0  0  0  0  0  0  0  0  0  0  0  0
    7.8581   -9.5413    0.0000 C   0  0  0  0  0  0  0  0  0  0  0  0
    5.0000   -9.5413    0.0000 F   0  0  0  0  0  0  0  0  0  0  0  0
    5.7124  -10.7787    0.0000 F   0  0  0  0  0  0  0  0  0  0  0  0
    5.5000   -9.1580    0.0000 F   0  0  0  0  0  0  0  0  0  0  0  0
    9.2871   -9.5288    0.0000 C   0  0  0  0  0  0  0  0  0  0  0  0
    8.5622   -5.8249    0.0000 C   0  0  0  0  0  0  0  0  0  0  0  0
    8.5622   -9.1205    0.0000 O   0  0  0  0  0  0  0  0  0  0  0  0
    7.1415   -7.4873    0.0000 F   0  0  0  0  0  0  0  0  0  0  0  0
   10.7079   -8.6914    0.0000 C   0  0  0  0  0  0  0  0  0  0  0  0
    9.2788   -6.2374    0.0000 C   0  0  0  0  0  0  0  0  0  0  0  0
    8.5580   -5.0000    0.0000 Cl  0  0  0  0  0  0  0  0  0  0  0  0
   11.4203   -8.2747    0.0000 F   0  0  0  0  0  0  0  0  0  0  0  0
   10.7162   -9.5205    0.0000 C   0  0  0  0  0  0  0  0  0  0  0  0
  2  1  1  0  0  0  0
  3  1  1  0  0  0  0
  4  8  1  0  0  0  0
  5  2  1  0  0  0  0
  6  2  2  0  0  0  0
  7  5  2  0  0  0  0
  8 12  2  0  0  0  0
  9  1  1  0  0  0  0
 10 19  1  0  0  0  0
 11  3  1  0  0  0  0
 12 14  1  0  0  0  0
 13 15  2  0  0  0  0
 14  9  2  0  0  0  0
 15  9  1  0  0  0  0
 16  4  1  0  0  0  0
 17  4  1  0  0  0  0
 18  4  1  0  0  0  0
 19  3  2  0  0  0  0
 20  7  1  0  0  0  0
 21  1  1  0  0  0  0
 22  5  1  0  0  0  0
 23 11  2  0  0  0  0
 24  6  1  0  0  0  0
 25 20  1  0  0  0  0
 26 23  1  0  0  0  0
 27 10  2  0  0  0  0
 20 24  2  0  0  0  0
 13  8  1  0  0  0  0
 23 27  1  0  0  0  0
M  END
> <Molecule Name>
DNDI1574841

> <CDD Number>
CDD-1535769

> <IC50_uM>
0.194 (n=1)

$$$$

SketchEl molfile

 27 29  0  0  0  0  0  0  0  0999 V2000
    9.2887   -7.8799    0.0000 C   0  0  0  0  0  0  0  0  0  0  0  0
    8.5718   -7.4715    0.0000 C   0  0  0  0  0  0  0  0  0  0  0  0
    5.7127   -9.1303    0.0000 C   0  0  0  0  0  0  0  0  0  0  0  0
    9.9930   -7.4632    0.0000 C   0  0  0  0  0  0  0  0  0  0  0  0
   12.1436   -9.5221    0.0000 N   0  0  0  0  0  0  0  0  0  0  0  0
    9.2887   -8.7052    0.0000 C   0  0  0  0  0  0  0  0  0  0  0  0
    8.5676   -6.6463    0.0000 C   0  0  0  0  0  0  0  0  0  0  0  0
   11.4351   -9.1094    0.0000 C   0  0  0  0  0  0  0  0  0  0  0  0
    6.4296   -8.7177    0.0000 C   0  0  0  0  0  0  0  0  0  0  0  0
    7.8591   -7.8883    0.0000 C   0  0  0  0  0  0  0  0  0  0  0  0
   10.7099   -7.8674    0.0000 C   0  0  0  0  0  0  0  0  0  0  0  0
    9.2803   -5.4126    0.0000 N   0  0  0  0  0  0  0  0  0  0  0  0
    7.1422   -9.1303    0.0000 C   0  0  0  0  0  0  0  0  0  0  0  0
    6.4296   -7.8924    0.0000 C   0  0  0  0  0  0  0  0  0  0  0  0
    7.8591   -8.7177    0.0000 C   0  0  0  0  0  0  0  0  0  0  0  0
    7.1422   -7.4757    0.0000 C   0  0  0  0  0  0  0  0  0  0  0  0
    5.5001   -8.3342    0.0000 F   0  0  0  0  0  0  0  0  0  0  0  0
    5.0000   -8.7177    0.0000 F   0  0  0  0  0  0  0  0  0  0  0  0
    5.7127   -9.9555    0.0000 F   0  0  0  0  0  0  0  0  0  0  0  0
   10.7182   -8.6968    0.0000 C   0  0  0  0  0  0  0  0  0  0  0  0
    8.5676   -8.2967    0.0000 O   0  0  0  0  0  0  0  0  0  0  0  0
    9.9888   -6.6379    0.0000 F   0  0  0  0  0  0  0  0  0  0  0  0
   10.0013   -9.1136    0.0000 C   0  0  0  0  0  0  0  0  0  0  0  0
    9.2845   -6.2337    0.0000 C   0  0  0  0  0  0  0  0  0  0  0  0
    7.8549   -6.2420    0.0000 C   0  0  0  0  0  0  0  0  0  0  0  0
    8.5635   -5.0000    0.0000 C   0  0  0  0  0  0  0  0  0  0  0  0
    7.8466   -5.4209    0.0000 C   0  0  0  0  0  0  0  0  0  0  0  0
  2  1  1  0  0  0  0
  3  9  1  0  0  0  0
  4  1  1  0  0  0  0
  5  8  3  0  0  0  0
  6  1  2  0  0  0  0
  7  2  1  0  0  0  0
  8 20  1  0  0  0  0
  9 14  2  0  0  0  0
 10  2  1  0  0  0  0
 11  4  2  0  0  0  0
 12 24  1  0  0  0  0
 13 15  2  0  0  0  0
 14 16  1  0  0  0  0
 15 10  1  0  0  0  0
 16 10  2  0  0  0  0
 17  3  1  0  0  0  0
 18  3  1  0  0  0  0
 19  3  1  0  0  0  0
 20 11  1  0  0  0  0
 21  2  1  0  0  0  0
 22  4  1  0  0  0  0
 23  6  1  0  0  0  0
 24  7  2  0  0  0  0
 25  7  1  0  0  0  0
 26 12  2  0  0  0  0
 27 25  2  0  0  0  0
 20 23  2  0  0  0  0
 27 26  1  0  0  0  0
 13  9  1  0  0  0  0
M  END
> <Molecule Name>
DNDI1574842

> <CDD Number>
CDD-1535770

> <IC50_uM>
0.00323562204220456 ร/รท 2.11758933155575 (n=2)

$$$$

SketchEl molfile

 32 35  0  0  0  0  0  0  0  0999 V2000
   11.4198   -6.2339    0.0000 C   0  0  0  0  0  0  0  0  0  0  0  0
   10.7069   -6.6466    0.0000 N   0  0  0  0  0  0  0  0  0  0  0  0
    5.7128  -10.3734    0.0000 C   0  0  0  0  0  0  0  0  0  0  0  0
   12.1285   -6.6508    0.0000 N   0  0  0  0  0  0  0  0  0  0  0  0
    8.5726   -8.7143    0.0000 C   0  0  0  0  0  0  0  0  0  0  0  0
   14.2670   -7.0676    0.0000 N   0  0  0  0  0  0  0  0  0  0  0  0
   11.4114   -5.4168    0.0000 N   0  0  0  0  0  0  0  0  0  0  0  0
    8.5684   -7.8889    0.0000 N   0  0  0  0  0  0  0  0  0  0  0  0
   13.5583   -6.6549    0.0000 C   0  0  0  0  0  0  0  0  0  0  0  0
    6.4299   -9.9607    0.0000 C   0  0  0  0  0  0  0  0  0  0  0  0
    9.2896   -9.1228    0.0000 C   0  0  0  0  0  0  0  0  0  0  0  0
    7.8597   -9.1311    0.0000 C   0  0  0  0  0  0  0  0  0  0  0  0
   10.7028   -7.4762    0.0000 C   0  0  0  0  0  0  0  0  0  0  0  0
    9.9899   -6.2381    0.0000 C   0  0  0  0  0  0  0  0  0  0  0  0
   12.8455   -6.2381    0.0000 C   0  0  0  0  0  0  0  0  0  0  0  0
   10.0024  -10.3567    0.0000 N   0  0  0  0  0  0  0  0  0  0  0  0
    7.1427  -10.3734    0.0000 C   0  0  0  0  0  0  0  0  0  0  0  0
    6.4299   -9.1311    0.0000 C   0  0  0  0  0  0  0  0  0  0  0  0
    7.8597   -9.9607    0.0000 C   0  0  0  0  0  0  0  0  0  0  0  0
    7.1427   -8.7184    0.0000 C   0  0  0  0  0  0  0  0  0  0  0  0
    5.0000   -9.9607    0.0000 F   0  0  0  0  0  0  0  0  0  0  0  0
    5.7128  -11.1988    0.0000 F   0  0  0  0  0  0  0  0  0  0  0  0
    5.5002   -9.5772    0.0000 F   0  0  0  0  0  0  0  0  0  0  0  0
    9.2729   -6.6508    0.0000 C   0  0  0  0  0  0  0  0  0  0  0  0
    9.9941   -7.8847    0.0000 C   0  0  0  0  0  0  0  0  0  0  0  0
    9.2812   -7.4720    0.0000 C   0  0  0  0  0  0  0  0  0  0  0  0
   12.1243   -5.0000    0.0000 C   0  0  0  0  0  0  0  0  0  0  0  0
   12.8455   -5.4127    0.0000 C   0  0  0  0  0  0  0  0  0  0  0  0
    9.2896   -9.9482    0.0000 C   0  0  0  0  0  0  0  0  0  0  0  0
    9.9941   -8.7059    0.0000 C   0  0  0  0  0  0  0  0  0  0  0  0
   10.7194   -9.9399    0.0000 C   0  0  0  0  0  0  0  0  0  0  0  0
   10.7111   -9.1103    0.0000 C   0  0  0  0  0  0  0  0  0  0  0  0
  2  1  1  0  0  0  0
  3 10  1  0  0  0  0
  4  1  2  0  0  0  0
  5  8  1  0  0  0  0
  6  9  3  0  0  0  0
  7  1  1  0  0  0  0
  8 26  1  0  0  0  0
  9 15  1  0  0  0  0
 10 18  2  0  0  0  0
 11  5  1  0  0  0  0
 12  5  1  0  0  0  0
 13  2  1  0  0  0  0
 14  2  1  0  0  0  0
 15  4  1  0  0  0  0
 16 29  1  0  0  0  0
 17 19  2  0  0  0  0
 18 20  1  0  0  0  0
 19 12  1  0  0  0  0
 20 12  2  0  0  0  0
 21  3  1  0  0  0  0
 22  3  1  0  0  0  0
 23  3  1  0  0  0  0
 24 14  1  0  0  0  0
 25 13  1  0  0  0  0
 26 24  1  0  0  0  0
 27  7  2  0  0  0  0
 28 27  1  0  0  0  0
 29 11  2  0  0  0  0
 30 11  1  0  0  0  0
 31 32  1  0  0  0  0
 32 30  2  0  0  0  0
 28 15  2  0  0  0  0
 25 26  1  0  0  0  0
 17 10  1  0  0  0  0
 31 16  2  0  0  0  0
M  END
> <Molecule Name>
DNDI1574843

> <CDD Number>
CDD-1535771

> <IC50_uM>
0.031 (n=1)

$$$$

SketchEl molfile

 31 34  0  0  0  0  0  0  0  0999 V2000
   12.1328   -6.2374    0.0000 C   0  0  0  0  0  0  0  0  0  0  0  0
   11.4162   -5.8250    0.0000 C   0  0  0  0  0  0  0  0  0  0  0  0
   10.7038   -6.2374    0.0000 N   0  0  0  0  0  0  0  0  0  0  0  0
    5.7124   -9.9622    0.0000 C   0  0  0  0  0  0  0  0  0  0  0  0
    9.2872   -8.7122    0.0000 C   0  0  0  0  0  0  0  0  0  0  0  0
   12.8911   -5.9041    0.0000 C   0  0  0  0  0  0  0  0  0  0  0  0
   13.4411   -6.5166    0.0000 N   0  0  0  0  0  0  0  0  0  0  0  0
   12.2203   -7.0582    0.0000 S   0  0  0  0  0  0  0  0  0  0  0  0
    8.5706   -8.3039    0.0000 C   0  0  0  0  0  0  0  0  0  0  0  0
   10.1871   -9.6997    0.0000 N   0  0  0  0  0  0  0  0  0  0  0  0
   13.0286   -7.2290    0.0000 C   0  0  0  0  0  0  0  0  0  0  0  0
   10.0413   -8.3748    0.0000 S   0  0  0  0  0  0  0  0  0  0  0  0
    8.5664   -7.4790    0.0000 N   0  0  0  0  0  0  0  0  0  0  0  0
   10.5954   -8.9831    0.0000 C   0  0  0  0  0  0  0  0  0  0  0  0
    6.4291   -9.5497    0.0000 C   0  0  0  0  0  0  0  0  0  0  0  0
    9.3789   -9.5330    0.0000 C   0  0  0  0  0  0  0  0  0  0  0  0
    7.8581   -8.7206    0.0000 C   0  0  0  0  0  0  0  0  0  0  0  0
   11.4162   -5.0000    0.0000 O   0  0  0  0  0  0  0  0  0  0  0  0
   10.6996   -7.0665    0.0000 C   0  0  0  0  0  0  0  0  0  0  0  0
    9.9871   -5.8291    0.0000 C   0  0  0  0  0  0  0  0  0  0  0  0
    7.1415   -9.9622    0.0000 C   0  0  0  0  0  0  0  0  0  0  0  0
    6.4291   -8.7247    0.0000 C   0  0  0  0  0  0  0  0  0  0  0  0
    7.8581   -9.5497    0.0000 C   0  0  0  0  0  0  0  0  0  0  0  0
    7.1415   -8.3081    0.0000 C   0  0  0  0  0  0  0  0  0  0  0  0
    5.7124  -10.7871    0.0000 F   0  0  0  0  0  0  0  0  0  0  0  0
    5.5000   -9.1664    0.0000 F   0  0  0  0  0  0  0  0  0  0  0  0
    5.0000   -9.5497    0.0000 F   0  0  0  0  0  0  0  0  0  0  0  0
    9.2705   -6.2416    0.0000 C   0  0  0  0  0  0  0  0  0  0  0  0
    9.9913   -7.4748    0.0000 C   0  0  0  0  0  0  0  0  0  0  0  0
    9.2789   -7.0624    0.0000 C   0  0  0  0  0  0  0  0  0  0  0  0
   13.0619   -5.0958    0.0000 C   0  0  0  0  0  0  0  0  0  0  0  0
  2  1  1  0  0  0  0
  3  2  1  0  0  0  0
  4 15  1  0  0  0  0
  5  9  1  0  0  0  0
  6  1  2  0  0  0  0
  7  6  1  0  0  0  0
  8  1  1  0  0  0  0
  9 13  1  0  0  0  0
 10 16  1  0  0  0  0
 11  8  1  0  0  0  0
 12  5  1  0  0  0  0
 13 30  1  0  0  0  0
 14 12  1  0  0  0  0
 15 22  2  0  0  0  0
 16  5  2  0  0  0  0
 17  9  1  0  0  0  0
 18  2  2  0  0  0  0
 19  3  1  0  0  0  0
 20  3  1  0  0  0  0
 21 23  2  0  0  0  0
 22 24  1  0  0  0  0
 23 17  1  0  0  0  0
 24 17  2  0  0  0  0
 25  4  1  0  0  0  0
 26  4  1  0  0  0  0
 27  4  1  0  0  0  0
 28 20  1  0  0  0  0
 29 19  1  0  0  0  0
 30 28  1  0  0  0  0
 31  6  1  0  0  0  0
  7 11  2  0  0  0  0
 29 30  1  0  0  0  0
 21 15  1  0  0  0  0
 14 10  2  0  0  0  0
M  END
> <Molecule Name>
DNDI1574844

> <CDD Number>
CDD-1535772

> <IC50_uM>
0.0685 (n=1)

$$$$

SketchEl molfile

 36 39  0  0  0  0  0  0  0  0999 V2000
   12.1341   -6.6960    0.0000 C   0  0  0  0  0  0  0  0  0  0  0  0
   12.8925   -6.3626    0.0000 N   0  0  0  0  0  0  0  0  0  0  0  0
   11.4173   -6.2835    0.0000 C   0  0  0  0  0  0  0  0  0  0  0  0
   13.4426   -6.9752    0.0000 N   0  0  0  0  0  0  0  0  0  0  0  0
   12.2216   -7.5169    0.0000 C   0  0  0  0  0  0  0  0  0  0  0  0
   10.7048   -6.6960    0.0000 N   0  0  0  0  0  0  0  0  0  0  0  0
    5.7126  -10.4214    0.0000 C   0  0  0  0  0  0  0  0  0  0  0  0
   13.0300   -7.6878    0.0000 C   0  0  0  0  0  0  0  0  0  0  0  0
    8.5712   -8.7629    0.0000 C   0  0  0  0  0  0  0  0  0  0  0  0
   13.0634   -5.5542    0.0000 C   0  0  0  0  0  0  0  0  0  0  0  0
    8.5670   -7.9378    0.0000 N   0  0  0  0  0  0  0  0  0  0  0  0
    6.4293  -10.0089    0.0000 C   0  0  0  0  0  0  0  0  0  0  0  0
    9.2880   -9.1713    0.0000 C   0  0  0  0  0  0  0  0  0  0  0  0
   11.4173   -5.4584    0.0000 O   0  0  0  0  0  0  0  0  0  0  0  0
    7.8586   -9.1796    0.0000 C   0  0  0  0  0  0  0  0  0  0  0  0
    9.9880   -6.2876    0.0000 C   0  0  0  0  0  0  0  0  0  0  0  0
   10.7006   -7.5253    0.0000 C   0  0  0  0  0  0  0  0  0  0  0  0
   10.0005  -10.4047    0.0000 N   0  0  0  0  0  0  0  0  0  0  0  0
    7.1419  -10.4214    0.0000 C   0  0  0  0  0  0  0  0  0  0  0  0
    6.4293   -9.1838    0.0000 C   0  0  0  0  0  0  0  0  0  0  0  0
    7.8586  -10.0089    0.0000 C   0  0  0  0  0  0  0  0  0  0  0  0
    7.1419   -8.7671    0.0000 C   0  0  0  0  0  0  0  0  0  0  0  0
    5.7126  -11.2465    0.0000 F   0  0  0  0  0  0  0  0  0  0  0  0
    5.5001   -9.6255    0.0000 F   0  0  0  0  0  0  0  0  0  0  0  0
    5.0000  -10.0089    0.0000 F   0  0  0  0  0  0  0  0  0  0  0  0
    9.2713   -6.7002    0.0000 C   0  0  0  0  0  0  0  0  0  0  0  0
    9.9922   -7.9336    0.0000 C   0  0  0  0  0  0  0  0  0  0  0  0
    9.2796   -7.5211    0.0000 C   0  0  0  0  0  0  0  0  0  0  0  0
    9.2880   -9.9964    0.0000 C   0  0  0  0  0  0  0  0  0  0  0  0
   13.3676   -8.4420    0.0000 C   0  0  0  0  0  0  0  0  0  0  0  0
   12.4508   -5.0000    0.0000 C   0  0  0  0  0  0  0  0  0  0  0  0
   13.7968   -5.9293    0.0000 C   0  0  0  0  0  0  0  0  0  0  0  0
   13.8468   -5.3000    0.0000 C   0  0  0  0  0  0  0  0  0  0  0  0
    9.9922   -8.7546    0.0000 C   0  0  0  0  0  0  0  0  0  0  0  0
   10.7173   -9.9880    0.0000 C   0  0  0  0  0  0  0  0  0  0  0  0
   10.7089   -9.1588    0.0000 C   0  0  0  0  0  0  0  0  0  0  0  0
  2  1  1  0  0  0  0
  3  1  1  0  0  0  0
  4  2  1  0  0  0  0
  5  1  2  0  0  0  0
  6  3  1  0  0  0  0
  7 12  1  0  0  0  0
  8  5  1  0  0  0  0
  9 11  1  0  0  0  0
 10  2  1  0  0  0  0
 11 28  1  0  0  0  0
 12 20  2  0  0  0  0
 13  9  1  0  0  0  0
 14  3  2  0  0  0  0
 15  9  1  0  0  0  0
 16  6  1  0  0  0  0
 17  6  1  0  0  0  0
 18 29  1  0  0  0  0
 19 21  2  0  0  0  0
 20 22  1  0  0  0  0
 21 15  1  0  0  0  0
 22 15  2  0  0  0  0
 23  7  1  0  0  0  0
 24  7  1  0  0  0  0
 25  7  1  0  0  0  0
 26 16  1  0  0  0  0
 27 17  1  0  0  0  0
 28 26  1  0  0  0  0
 29 13  2  0  0  0  0
 30  8  1  0  0  0  0
 31 10  1  0  0  0  0
 32 10  1  0  0  0  0
 33 10  1  0  0  0  0
 34 13  1  0  0  0  0
 35 18  2  0  0  0  0
 36 34  2  0  0  0  0
  4  8  2  0  0  0  0
 27 28  1  0  0  0  0
 36 35  1  0  0  0  0
 19 12  1  0  0  0  0
M  END
> <Molecule Name>
DNDI1574845

> <CDD Number>
CDD-1535773

> <IC50_uM>
0.0475 (n=1)

$$$$

SketchEl molfile

 29 32  0  0  0  0  0  0  0  0999 V2000
   11.4177   -6.2335    0.0000 C   0  0  0  0  0  0  0  0  0  0  0  0
    5.7126  -10.3717    0.0000 C   0  0  0  0  0  0  0  0  0  0  0  0
   10.7051   -6.6461    0.0000 N   0  0  0  0  0  0  0  0  0  0  0  0
    9.2882   -9.1215    0.0000 C   0  0  0  0  0  0  0  0  0  0  0  0
    8.5714   -8.7131    0.0000 C   0  0  0  0  0  0  0  0  0  0  0  0
   10.1883  -10.1091    0.0000 N   0  0  0  0  0  0  0  0  0  0  0  0
   10.0425   -8.7839    0.0000 S   0  0  0  0  0  0  0  0  0  0  0  0
    8.5672   -7.8879    0.0000 N   0  0  0  0  0  0  0  0  0  0  0  0
   10.5967   -9.3923    0.0000 C   0  0  0  0  0  0  0  0  0  0  0  0
    6.4294   -9.9591    0.0000 C   0  0  0  0  0  0  0  0  0  0  0  0
    9.3799   -9.9424    0.0000 C   0  0  0  0  0  0  0  0  0  0  0  0
   12.1261   -6.6502    0.0000 N   0  0  0  0  0  0  0  0  0  0  0  0
   11.4094   -5.4167    0.0000 N   0  0  0  0  0  0  0  0  0  0  0  0
    7.8588   -9.1298    0.0000 C   0  0  0  0  0  0  0  0  0  0  0  0
   10.7009   -7.4754    0.0000 C   0  0  0  0  0  0  0  0  0  0  0  0
    9.9883   -6.2377    0.0000 C   0  0  0  0  0  0  0  0  0  0  0  0
    7.1420  -10.3717    0.0000 C   0  0  0  0  0  0  0  0  0  0  0  0
    6.4294   -9.1298    0.0000 C   0  0  0  0  0  0  0  0  0  0  0  0
    7.8588   -9.9591    0.0000 C   0  0  0  0  0  0  0  0  0  0  0  0
    7.1420   -8.7172    0.0000 C   0  0  0  0  0  0  0  0  0  0  0  0
    5.0000   -9.9591    0.0000 F   0  0  0  0  0  0  0  0  0  0  0  0
    5.7126  -11.1968    0.0000 F   0  0  0  0  0  0  0  0  0  0  0  0
    5.5001   -9.5757    0.0000 F   0  0  0  0  0  0  0  0  0  0  0  0
    9.2715   -6.6502    0.0000 C   0  0  0  0  0  0  0  0  0  0  0  0
    9.9925   -7.8838    0.0000 C   0  0  0  0  0  0  0  0  0  0  0  0
    9.2798   -7.4712    0.0000 C   0  0  0  0  0  0  0  0  0  0  0  0
   12.8429   -5.4125    0.0000 C   0  0  0  0  0  0  0  0  0  0  0  0
   12.1220   -5.0000    0.0000 C   0  0  0  0  0  0  0  0  0  0  0  0
   12.8429   -6.2377    0.0000 C   0  0  0  0  0  0  0  0  0  0  0  0
  2 10  1  0  0  0  0
  3  1  1  0  0  0  0
  4  5  1  0  0  0  0
  5  8  1  0  0  0  0
  6 11  1  0  0  0  0
  7  4  1  0  0  0  0
  8 26  1  0  0  0  0
  9  7  1  0  0  0  0
 10 18  2  0  0  0  0
 11  4  2  0  0  0  0
 12  1  2  0  0  0  0
 13  1  1  0  0  0  0
 14  5  1  0  0  0  0
 15  3  1  0  0  0  0
 16  3  1  0  0  0  0
 17 19  2  0  0  0  0
 18 20  1  0  0  0  0
 19 14  1  0  0  0  0
 20 14  2  0  0  0  0
 21  2  1  0  0  0  0
 22  2  1  0  0  0  0
 23  2  1  0  0  0  0
 24 16  1  0  0  0  0
 25 15  1  0  0  0  0
 26 24  1  0  0  0  0
 27 28  1  0  0  0  0
 28 13  2  0  0  0  0
 29 12  1  0  0  0  0
 27 29  2  0  0  0  0
 25 26  1  0  0  0  0
 17 10  1  0  0  0  0
  9  6  2  0  0  0  0
M  END
> <Molecule Name>
DNDI1574846

> <CDD Number>
CDD-1535774

> <IC50_uM>
0.02 (n=1)

$$$$

SketchEl molfile

 29 32  0  0  0  0  0  0  0  0999 V2000
   10.0019   -6.2369    0.0000 C   0  0  0  0  0  0  0  0  0  0  0  0
    9.2856   -5.8246    0.0000 C   0  0  0  0  0  0  0  0  0  0  0  0
   10.0894   -7.0574    0.0000 N   0  0  0  0  0  0  0  0  0  0  0  0
    8.5734   -8.7066    0.0000 N   0  0  0  0  0  0  0  0  0  0  0  0
    8.5734   -6.2369    0.0000 N   0  0  0  0  0  0  0  0  0  0  0  0
    5.0000  -11.5970    0.0000 N   0  0  0  0  0  0  0  0  0  0  0  0
   10.8973   -7.2281    0.0000 N   0  0  0  0  0  0  0  0  0  0  0  0
    8.5775   -9.5313    0.0000 C   0  0  0  0  0  0  0  0  0  0  0  0
   10.7557   -5.8996    0.0000 C   0  0  0  0  0  0  0  0  0  0  0  0
    5.7205  -11.1889    0.0000 C   0  0  0  0  0  0  0  0  0  0  0  0
    9.2939   -9.9394    0.0000 C   0  0  0  0  0  0  0  0  0  0  0  0
   11.3096   -6.5118    0.0000 C   0  0  0  0  0  0  0  0  0  0  0  0
    7.8654   -9.9477    0.0000 C   0  0  0  0  0  0  0  0  0  0  0  0
    7.8570   -8.3027    0.0000 C   0  0  0  0  0  0  0  0  0  0  0  0
    9.2856   -8.2943    0.0000 C   0  0  0  0  0  0  0  0  0  0  0  0
    9.2856   -5.0000    0.0000 O   0  0  0  0  0  0  0  0  0  0  0  0
   10.0061  -11.1722    0.0000 N   0  0  0  0  0  0  0  0  0  0  0  0
    8.5734   -7.0616    0.0000 C   0  0  0  0  0  0  0  0  0  0  0  0
    9.2856   -7.4739    0.0000 C   0  0  0  0  0  0  0  0  0  0  0  0
    7.8570   -7.4739    0.0000 C   0  0  0  0  0  0  0  0  0  0  0  0
    7.1490   -9.5354    0.0000 C   0  0  0  0  0  0  0  0  0  0  0  0
    7.8654  -10.7765    0.0000 C   0  0  0  0  0  0  0  0  0  0  0  0
    6.4368  -10.7765    0.0000 C   0  0  0  0  0  0  0  0  0  0  0  0
    6.4368   -9.9477    0.0000 C   0  0  0  0  0  0  0  0  0  0  0  0
    7.1490  -11.1889    0.0000 C   0  0  0  0  0  0  0  0  0  0  0  0
    9.2939  -10.7640    0.0000 C   0  0  0  0  0  0  0  0  0  0  0  0
    9.9977   -9.5229    0.0000 C   0  0  0  0  0  0  0  0  0  0  0  0
   10.7224  -10.7557    0.0000 C   0  0  0  0  0  0  0  0  0  0  0  0
   10.7141   -9.9269    0.0000 C   0  0  0  0  0  0  0  0  0  0  0  0
  2  1  1  0  0  0  0
  3  1  2  0  0  0  0
  4 14  1  0  0  0  0
  5  2  1  0  0  0  0
  6 10  3  0  0  0  0
  7  3  1  0  0  0  0
  8  4  1  0  0  0  0
  9  1  1  0  0  0  0
 10 23  1  0  0  0  0
 11  8  1  0  0  0  0
 12  9  2  0  0  0  0
 13  8  1  0  0  0  0
 14 20  1  0  0  0  0
 15 19  1  0  0  0  0
 16  2  2  0  0  0  0
 17 26  1  0  0  0  0
 18  5  1  0  0  0  0
 19 18  1  0  0  0  0
 20 18  1  0  0  0  0
 21 13  2  0  0  0  0
 22 13  1  0  0  0  0
 23 24  2  0  0  0  0
 24 21  1  0  0  0  0
 25 22  2  0  0  0  0
 26 11  2  0  0  0  0
 27 11  1  0  0  0  0
 28 29  1  0  0  0  0
 29 27  2  0  0  0  0
 12  7  1  0  0  0  0
 15  4  1  0  0  0  0
 25 23  1  0  0  0  0
 28 17  2  0  0  0  0
M  END
> <Molecule Name>
DNDI1576378

> <CDD Number>
CDD-1535775

> <IC50_uM>
0.4475 (n=1)

$$$$

SketchEl molfile

 30 33  0  0  0  0  0  0  0  0999 V2000
    7.1470   -9.1314    0.0000 C   0  0  0  0  0  0  0  0  0  0  0  0
    7.8599   -8.7145    0.0000 C   0  0  0  0  0  0  0  0  0  0  0  0
    9.9944   -6.6467    0.0000 N   0  0  0  0  0  0  0  0  0  0  0  0
    6.4300   -8.7187    0.0000 C   0  0  0  0  0  0  0  0  0  0  0  0
   13.5548   -7.0636    0.0000 N   0  0  0  0  0  0  0  0  0  0  0  0
    7.8558   -7.8891    0.0000 N   0  0  0  0  0  0  0  0  0  0  0  0
   10.7073   -6.2340    0.0000 C   0  0  0  0  0  0  0  0  0  0  0  0
    7.1470   -9.9611    0.0000 C   0  0  0  0  0  0  0  0  0  0  0  0
    5.7171   -9.1356    0.0000 C   0  0  0  0  0  0  0  0  0  0  0  0
   12.8460   -6.6551    0.0000 C   0  0  0  0  0  0  0  0  0  0  0  0
    8.5770   -9.1231    0.0000 C   0  0  0  0  0  0  0  0  0  0  0  0
    9.2774   -6.2382    0.0000 C   0  0  0  0  0  0  0  0  0  0  0  0
    9.9903   -7.4764    0.0000 C   0  0  0  0  0  0  0  0  0  0  0  0
   11.4161   -6.6509    0.0000 C   0  0  0  0  0  0  0  0  0  0  0  0
    9.2899  -10.3571    0.0000 N   0  0  0  0  0  0  0  0  0  0  0  0
    8.5603   -6.6509    0.0000 C   0  0  0  0  0  0  0  0  0  0  0  0
    9.2815   -7.8849    0.0000 C   0  0  0  0  0  0  0  0  0  0  0  0
    8.5687   -7.4722    0.0000 C   0  0  0  0  0  0  0  0  0  0  0  0
    5.7171   -9.9611    0.0000 C   0  0  0  0  0  0  0  0  0  0  0  0
   12.1331   -6.2382    0.0000 C   0  0  0  0  0  0  0  0  0  0  0  0
    6.4258   -7.8933    0.0000 F   0  0  0  0  0  0  0  0  0  0  0  0
    6.4300  -10.3738    0.0000 C   0  0  0  0  0  0  0  0  0  0  0  0
    5.0000  -10.3738    0.0000 Cl  0  0  0  0  0  0  0  0  0  0  0  0
    8.5770   -9.9486    0.0000 C   0  0  0  0  0  0  0  0  0  0  0  0
   10.6990   -5.4169    0.0000 C   0  0  0  0  0  0  0  0  0  0  0  0
   11.4119   -5.0000    0.0000 C   0  0  0  0  0  0  0  0  0  0  0  0
    9.2815   -8.7062    0.0000 C   0  0  0  0  0  0  0  0  0  0  0  0
   10.0070   -9.9402    0.0000 C   0  0  0  0  0  0  0  0  0  0  0  0
   12.1331   -5.4127    0.0000 C   0  0  0  0  0  0  0  0  0  0  0  0
    9.9986   -9.1106    0.0000 C   0  0  0  0  0  0  0  0  0  0  0  0
  2  1  1  0  0  0  0
  3 12  1  0  0  0  0
  4  1  2  0  0  0  0
  5 10  3  0  0  0  0
  6  2  1  0  0  0  0
  7  3  1  0  0  0  0
  8  1  1  0  0  0  0
  9  4  1  0  0  0  0
 10 20  1  0  0  0  0
 11  2  1  0  0  0  0
 12 16  1  0  0  0  0
 13 17  1  0  0  0  0
 14  7  2  0  0  0  0
 15 24  1  0  0  0  0
 16 18  1  0  0  0  0
 17 18  1  0  0  0  0
 18  6  1  0  0  0  0
 19  9  2  0  0  0  0
 20 14  1  0  0  0  0
 21  4  1  0  0  0  0
 22  8  2  0  0  0  0
 23 19  1  0  0  0  0
 24 11  2  0  0  0  0
 25  7  1  0  0  0  0
 26 25  2  0  0  0  0
 27 11  1  0  0  0  0
 28 30  1  0  0  0  0
 29 26  1  0  0  0  0
 30 27  2  0  0  0  0
 22 19  1  0  0  0  0
  3 13  1  0  0  0  0
 28 15  2  0  0  0  0
 29 20  2  0  0  0  0
M  END
> <Molecule Name>
DNDI1576379

> <CDD Number>
CDD-1535776

> <IC50_uM>
0.0162018517460197 ร/รท 1.44317075967173 (n=2)

$$$$

SketchEl molfile

 30 33  0  0  0  0  0  0  0  0999 V2000
    7.1465   -9.1304    0.0000 C   0  0  0  0  0  0  0  0  0  0  0  0
    7.8592   -8.7136    0.0000 C   0  0  0  0  0  0  0  0  0  0  0  0
    9.9931   -6.6463    0.0000 N   0  0  0  0  0  0  0  0  0  0  0  0
    6.4296   -8.7177    0.0000 C   0  0  0  0  0  0  0  0  0  0  0  0
   10.7059   -6.2337    0.0000 C   0  0  0  0  0  0  0  0  0  0  0  0
   11.4061   -8.3010    0.0000 N   0  0  0  0  0  0  0  0  0  0  0  0
    7.8550   -7.8883    0.0000 N   0  0  0  0  0  0  0  0  0  0  0  0
   11.4144   -7.4757    0.0000 C   0  0  0  0  0  0  0  0  0  0  0  0
   11.4144   -6.6505    0.0000 C   0  0  0  0  0  0  0  0  0  0  0  0
    7.1465   -9.9598    0.0000 C   0  0  0  0  0  0  0  0  0  0  0  0
    5.7169   -9.1345    0.0000 C   0  0  0  0  0  0  0  0  0  0  0  0
    8.5761   -9.1220    0.0000 C   0  0  0  0  0  0  0  0  0  0  0  0
    9.9890   -7.4757    0.0000 C   0  0  0  0  0  0  0  0  0  0  0  0
    9.2763   -6.2378    0.0000 C   0  0  0  0  0  0  0  0  0  0  0  0
    9.2888  -10.3557    0.0000 N   0  0  0  0  0  0  0  0  0  0  0  0
    8.5594   -6.6505    0.0000 C   0  0  0  0  0  0  0  0  0  0  0  0
    9.2804   -7.8842    0.0000 C   0  0  0  0  0  0  0  0  0  0  0  0
    8.5677   -7.4715    0.0000 C   0  0  0  0  0  0  0  0  0  0  0  0
    5.7169   -9.9598    0.0000 C   0  0  0  0  0  0  0  0  0  0  0  0
    6.4254   -7.8925    0.0000 F   0  0  0  0  0  0  0  0  0  0  0  0
    6.4296  -10.3724    0.0000 C   0  0  0  0  0  0  0  0  0  0  0  0
    5.0000  -10.3724    0.0000 Cl  0  0  0  0  0  0  0  0  0  0  0  0
    8.5761   -9.9473    0.0000 C   0  0  0  0  0  0  0  0  0  0  0  0
   10.6975   -5.4168    0.0000 C   0  0  0  0  0  0  0  0  0  0  0  0
   12.1313   -6.2378    0.0000 C   0  0  0  0  0  0  0  0  0  0  0  0
    9.2804   -8.7052    0.0000 C   0  0  0  0  0  0  0  0  0  0  0  0
   10.0057   -9.9389    0.0000 C   0  0  0  0  0  0  0  0  0  0  0  0
    9.9973   -9.1095    0.0000 C   0  0  0  0  0  0  0  0  0  0  0  0
   11.4102   -5.0000    0.0000 C   0  0  0  0  0  0  0  0  0  0  0  0
   12.1313   -5.4126    0.0000 C   0  0  0  0  0  0  0  0  0  0  0  0
  2  1  1  0  0  0  0
  3 14  1  0  0  0  0
  4  1  2  0  0  0  0
  5  3  1  0  0  0  0
  6  8  3  0  0  0  0
  7  2  1  0  0  0  0
  8  9  1  0  0  0  0
  9  5  2  0  0  0  0
 10  1  1  0  0  0  0
 11  4  1  0  0  0  0
 12  2  1  0  0  0  0
 13 17  1  0  0  0  0
 14 16  1  0  0  0  0
 15 23  1  0  0  0  0
 16 18  1  0  0  0  0
 17 18  1  0  0  0  0
 18  7  1  0  0  0  0
 19 11  2  0  0  0  0
 20  4  1  0  0  0  0
 21 10  2  0  0  0  0
 22 19  1  0  0  0  0
 23 12  2  0  0  0  0
 24  5  1  0  0  0  0
 25  9  1  0  0  0  0
 26 12  1  0  0  0  0
 27 28  1  0  0  0  0
 28 26  2  0  0  0  0
 29 24  2  0  0  0  0
 30 29  1  0  0  0  0
 21 19  1  0  0  0  0
  3 13  1  0  0  0  0
 27 15  2  0  0  0  0
 30 25  2  0  0  0  0
M  END
> <Molecule Name>
DNDI1576380

> <CDD Number>
CDD-1535777

> <IC50_uM>
0.0074785 (n=1)

$$$$

SketchEl molfile

 32 35  0  0  0  0  0  0  0  0999 V2000
    6.4306   -8.7279    0.0000 C   0  0  0  0  0  0  0  0  0  0  0  0
    6.4290   -9.5562    0.0000 C   0  0  0  0  0  0  0  0  0  0  0  0
    7.1427   -9.9692    0.0000 C   0  0  0  0  0  0  0  0  0  0  0  0
    7.8586   -9.5555    0.0000 C   0  0  0  0  0  0  0  0  0  0  0  0
    7.8546   -8.7229    0.0000 C   0  0  0  0  0  0  0  0  0  0  0  0
    7.1402   -8.3150    0.0000 C   0  0  0  0  0  0  0  0  0  0  0  0
    8.5672   -8.3070    0.0000 C   0  0  0  0  0  0  0  0  0  0  0  0
    5.7139   -9.9676    0.0000 C   0  0  0  0  0  0  0  0  0  0  0  0
    5.0000   -9.5541    0.0000 F   0  0  0  0  0  0  0  0  0  0  0  0
    5.7127  -10.7927    0.0000 F   0  0  0  0  0  0  0  0  0  0  0  0
    5.5016   -9.1704    0.0000 F   0  0  0  0  0  0  0  0  0  0  0  0
    9.2836   -8.7161    0.0000 C   0  0  0  0  0  0  0  0  0  0  0  0
    8.5632   -7.4819    0.0000 N   0  0  0  0  0  0  0  0  0  0  0  0
    9.3777   -9.5329    0.0000 C   0  0  0  0  0  0  0  0  0  0  0  0
   10.1856   -9.7006    0.0000 N   0  0  0  0  0  0  0  0  0  0  0  0
   10.5947   -8.9841    0.0000 C   0  0  0  0  0  0  0  0  0  0  0  0
   10.0396   -8.3737    0.0000 S   0  0  0  0  0  0  0  0  0  0  0  0
    9.2758   -7.0660    0.0000 C   0  0  0  0  0  0  0  0  0  0  0  0
    9.9879   -7.4761    0.0000 C   0  0  0  0  0  0  0  0  0  0  0  0
   10.6983   -7.0637    0.0000 C   0  0  0  0  0  0  0  0  0  0  0  0
   10.6986   -6.2383    0.0000 N   0  0  0  0  0  0  0  0  0  0  0  0
    9.9823   -5.8270    0.0000 C   0  0  0  0  0  0  0  0  0  0  0  0
    9.2656   -6.2411    0.0000 C   0  0  0  0  0  0  0  0  0  0  0  0
   11.4127   -5.8250    0.0000 C   0  0  0  0  0  0  0  0  0  0  0  0
   12.1277   -6.2369    0.0000 C   0  0  0  0  0  0  0  0  0  0  0  0
   11.4119   -5.0000    0.0000 O   0  0  0  0  0  0  0  0  0  0  0  0
   12.2107   -7.0531    0.0000 C   0  0  0  0  0  0  0  0  0  0  0  0
   13.0179   -7.2239    0.0000 O   0  0  0  0  0  0  0  0  0  0  0  0
   13.4297   -6.5089    0.0000 N   0  0  0  0  0  0  0  0  0  0  0  0
   12.8770   -5.8964    0.0000 C   0  0  0  0  0  0  0  0  0  0  0  0
   13.0450   -5.0887    0.0000 C   0  0  0  0  0  0  0  0  0  0  0  0
   11.5969   -7.6045    0.0000 C   0  0  0  0  0  0  0  0  0  0  0  0
  1  2  2  0  0  0  0
  2  3  1  0  0  0  0
  3  4  2  0  0  0  0
  4  5  1  0  0  0  0
  5  6  2  0  0  0  0
  6  1  1  0  0  0  0
  5  7  1  0  0  0  0
  2  8  1  0  0  0  0
  8  9  1  0  0  0  0
  8 10  1  0  0  0  0
  8 11  1  0  0  0  0
  7 12  1  0  0  0  0
  7 13  1  0  0  0  0
 12 14  2  0  0  0  0
 14 15  1  0  0  0  0
 15 16  2  0  0  0  0
 16 17  1  0  0  0  0
 17 12  1  0  0  0  0
 13 18  1  0  0  0  0
 18 19  1  0  0  0  0
 18 23  1  0  0  0  0
 19 20  1  0  0  0  0
 20 21  1  0  0  0  0
 21 22  1  0  0  0  0
 22 23  1  0  0  0  0
 21 24  1  0  0  0  0
 24 25  1  0  0  0  0
 24 26  2  0  0  0  0
 25 27  2  0  0  0  0
 27 28  1  0  0  0  0
 28 29  1  0  0  0  0
 29 30  2  0  0  0  0
 30 25  1  0  0  0  0
 30 31  1  0  0  0  0
 27 32  1  0  0  0  0
M  END
> <Molecule Name>
DNDI1576381

> <CDD Number>
CDD-1535778

> <IC50_uM>
0.1405 (n=1)

$$$$

SketchEl molfile

 31 34  0  0  0  0  0  0  0  0999 V2000
    6.4323   -9.9552    0.0000 C   0  0  0  0  0  0  0  0  0  0  0  0
    6.4307  -10.7837    0.0000 C   0  0  0  0  0  0  0  0  0  0  0  0
    7.1445  -11.1969    0.0000 C   0  0  0  0  0  0  0  0  0  0  0  0
    7.8606  -10.7831    0.0000 C   0  0  0  0  0  0  0  0  0  0  0  0
    7.8567   -9.9502    0.0000 C   0  0  0  0  0  0  0  0  0  0  0  0
    7.1420   -9.5422    0.0000 C   0  0  0  0  0  0  0  0  0  0  0  0
    8.5694   -9.5342    0.0000 C   0  0  0  0  0  0  0  0  0  0  0  0
    9.2861   -9.9434    0.0000 C   0  0  0  0  0  0  0  0  0  0  0  0
    8.5655   -8.7089    0.0000 N   0  0  0  0  0  0  0  0  0  0  0  0
    9.2847  -10.7659    0.0000 C   0  0  0  0  0  0  0  0  0  0  0  0
   10.0006  -11.1751    0.0000 N   0  0  0  0  0  0  0  0  0  0  0  0
   10.7143  -10.7589    0.0000 C   0  0  0  0  0  0  0  0  0  0  0  0
   10.7077   -9.9294    0.0000 C   0  0  0  0  0  0  0  0  0  0  0  0
    9.9913   -9.5240    0.0000 C   0  0  0  0  0  0  0  0  0  0  0  0
    9.2800   -8.2987    0.0000 C   0  0  0  0  0  0  0  0  0  0  0  0
    9.2780   -7.4770    0.0000 C   0  0  0  0  0  0  0  0  0  0  0  0
    8.5632   -7.0639    0.0000 C   0  0  0  0  0  0  0  0  0  0  0  0
    7.8486   -7.4787    0.0000 C   0  0  0  0  0  0  0  0  0  0  0  0
    7.8489   -8.3066    0.0000 C   0  0  0  0  0  0  0  0  0  0  0  0
    8.5623   -6.2386    0.0000 N   0  0  0  0  0  0  0  0  0  0  0  0
    9.2767   -5.8253    0.0000 C   0  0  0  0  0  0  0  0  0  0  0  0
    9.2758   -5.0000    0.0000 O   0  0  0  0  0  0  0  0  0  0  0  0
    9.9918   -6.2372    0.0000 C   0  0  0  0  0  0  0  0  0  0  0  0
   10.0751   -7.0548    0.0000 N   0  0  0  0  0  0  0  0  0  0  0  0
   10.8826   -7.2256    0.0000 N   0  0  0  0  0  0  0  0  0  0  0  0
   11.2945   -6.5104    0.0000 C   0  0  0  0  0  0  0  0  0  0  0  0
   10.7416   -5.8978    0.0000 C   0  0  0  0  0  0  0  0  0  0  0  0
   12.1152   -6.4233    0.0000 C   0  0  0  0  0  0  0  0  0  0  0  0
   11.2190   -7.9792    0.0000 C   0  0  0  0  0  0  0  0  0  0  0  0
    5.7153  -11.1953    0.0000 C   0  0  0  0  0  0  0  0  0  0  0  0
    5.0000  -11.6069    0.0000 N   0  0  0  0  0  0  0  0  0  0  0  0
  1  2  2  0  0  0  0
  2  3  1  0  0  0  0
  3  4  2  0  0  0  0
  4  5  1  0  0  0  0
  5  6  2  0  0  0  0
  6  1  1  0  0  0  0
  5  7  1  0  0  0  0
  7  8  1  0  0  0  0
  7  9  1  0  0  0  0
  8 10  2  0  0  0  0
 10 11  1  0  0  0  0
 11 12  2  0  0  0  0
 12 13  1  0  0  0  0
 13 14  2  0  0  0  0
 14  8  1  0  0  0  0
  9 15  1  0  0  0  0
  9 19  1  0  0  0  0
 15 16  1  0  0  0  0
 16 17  1  0  0  0  0
 17 18  1  0  0  0  0
 18 19  1  0  0  0  0
 17 20  1  0  0  0  0
 20 21  1  0  0  0  0
 21 22  2  0  0  0  0
 21 23  1  0  0  0  0
 23 24  2  0  0  0  0
 24 25  1  0  0  0  0
 25 26  1  0  0  0  0
 26 27  2  0  0  0  0
 27 23  1  0  0  0  0
 26 28  1  0  0  0  0
 25 29  1  0  0  0  0
  2 30  1  0  0  0  0
 30 31  3  0  0  0  0
M  END
> <Molecule Name>
DNDI1576382

> <CDD Number>
CDD-1535779

> <IC50_uM>
0.2605 (n=1)

$$$$

SketchEl molfile

 33 36  0  0  0  0  0  0  0  0999 V2000
    6.4310   -8.7288    0.0000 C   0  0  0  0  0  0  0  0  0  0  0  0
    6.4294   -9.5573    0.0000 C   0  0  0  0  0  0  0  0  0  0  0  0
    7.1432   -9.9704    0.0000 C   0  0  0  0  0  0  0  0  0  0  0  0
    7.8593   -9.5566    0.0000 C   0  0  0  0  0  0  0  0  0  0  0  0
    7.8553   -8.7238    0.0000 C   0  0  0  0  0  0  0  0  0  0  0  0
    7.1407   -8.3158    0.0000 C   0  0  0  0  0  0  0  0  0  0  0  0
    8.5680   -8.3077    0.0000 C   0  0  0  0  0  0  0  0  0  0  0  0
    9.2847   -8.7170    0.0000 C   0  0  0  0  0  0  0  0  0  0  0  0
    8.5641   -7.4825    0.0000 N   0  0  0  0  0  0  0  0  0  0  0  0
    9.2768   -7.0665    0.0000 C   0  0  0  0  0  0  0  0  0  0  0  0
    9.9891   -7.4767    0.0000 C   0  0  0  0  0  0  0  0  0  0  0  0
   10.6997   -7.0642    0.0000 C   0  0  0  0  0  0  0  0  0  0  0  0
   10.7000   -6.2385    0.0000 N   0  0  0  0  0  0  0  0  0  0  0  0
    9.9835   -5.8271    0.0000 C   0  0  0  0  0  0  0  0  0  0  0  0
    9.2667   -6.2413    0.0000 C   0  0  0  0  0  0  0  0  0  0  0  0
    5.7141   -9.9688    0.0000 C   0  0  0  0  0  0  0  0  0  0  0  0
    9.2833   -9.5394    0.0000 C   0  0  0  0  0  0  0  0  0  0  0  0
    9.9991   -9.9486    0.0000 N   0  0  0  0  0  0  0  0  0  0  0  0
   10.7128   -9.5325    0.0000 C   0  0  0  0  0  0  0  0  0  0  0  0
   10.7062   -8.7030    0.0000 C   0  0  0  0  0  0  0  0  0  0  0  0
    9.9898   -8.2976    0.0000 C   0  0  0  0  0  0  0  0  0  0  0  0
   11.4143   -5.8252    0.0000 C   0  0  0  0  0  0  0  0  0  0  0  0
   12.1294   -6.2371    0.0000 C   0  0  0  0  0  0  0  0  0  0  0  0
   11.4135   -5.0000    0.0000 O   0  0  0  0  0  0  0  0  0  0  0  0
   12.2125   -7.0536    0.0000 N   0  0  0  0  0  0  0  0  0  0  0  0
   13.0199   -7.2244    0.0000 N   0  0  0  0  0  0  0  0  0  0  0  0
   13.4318   -6.5092    0.0000 C   0  0  0  0  0  0  0  0  0  0  0  0
   12.8789   -5.8966    0.0000 C   0  0  0  0  0  0  0  0  0  0  0  0
   13.3563   -7.9780    0.0000 C   0  0  0  0  0  0  0  0  0  0  0  0
   14.2525   -6.4221    0.0000 C   0  0  0  0  0  0  0  0  0  0  0  0
    5.0000   -9.5551    0.0000 F   0  0  0  0  0  0  0  0  0  0  0  0
    5.7128  -10.7941    0.0000 F   0  0  0  0  0  0  0  0  0  0  0  0
    5.5017   -9.1714    0.0000 F   0  0  0  0  0  0  0  0  0  0  0  0
  1  2  2  0  0  0  0
  2  3  1  0  0  0  0
  3  4  2  0  0  0  0
  4  5  1  0  0  0  0
  5  6  2  0  0  0  0
  6  1  1  0  0  0  0
  5  7  1  0  0  0  0
  7  8  1  0  0  0  0
  7  9  1  0  0  0  0
  9 10  1  0  0  0  0
 10 11  1  0  0  0  0
 10 15  1  0  0  0  0
 11 12  1  0  0  0  0
 12 13  1  0  0  0  0
 13 14  1  0  0  0  0
 14 15  1  0  0  0  0
  2 16  1  0  0  0  0
  8 17  2  0  0  0  0
 17 18  1  0  0  0  0
 18 19  2  0  0  0  0
 19 20  1  0  0  0  0
 20 21  2  0  0  0  0
 21  8  1  0  0  0  0
 13 22  1  0  0  0  0
 22 23  1  0  0  0  0
 22 24  2  0  0  0  0
 23 25  2  0  0  0  0
 25 26  1  0  0  0  0
 26 27  1  0  0  0  0
 27 28  2  0  0  0  0
 28 23  1  0  0  0  0
 26 29  1  0  0  0  0
 27 30  1  0  0  0  0
 16 31  1  0  0  0  0
 16 32  1  0  0  0  0
 16 33  1  0  0  0  0
M  END
> <Molecule Name>
DNDI1576383

> <CDD Number>
CDD-1535780

> <IC50_uM>
0.0665 (n=1)

$$$$

SketchEl molfile

 33 36  0  0  0  0  0  0  0  0999 V2000
    6.4310   -8.7184    0.0000 C   0  0  0  0  0  0  0  0  0  0  0  0
    6.4298   -9.5457    0.0000 C   0  0  0  0  0  0  0  0  0  0  0  0
    7.1446   -9.9585    0.0000 C   0  0  0  0  0  0  0  0  0  0  0  0
    7.8610   -9.5452    0.0000 C   0  0  0  0  0  0  0  0  0  0  0  0
    7.8581   -8.7148    0.0000 C   0  0  0  0  0  0  0  0  0  0  0  0
    7.1428   -8.3056    0.0000 C   0  0  0  0  0  0  0  0  0  0  0  0
    8.5710   -8.2996    0.0000 C   0  0  0  0  0  0  0  0  0  0  0  0
    9.2870   -8.7094    0.0000 C   0  0  0  0  0  0  0  0  0  0  0  0
    8.5678   -7.4746    0.0000 N   0  0  0  0  0  0  0  0  0  0  0  0
    9.2867   -9.5319    0.0000 C   0  0  0  0  0  0  0  0  0  0  0  0
   10.0019   -9.9417    0.0000 N   0  0  0  0  0  0  0  0  0  0  0  0
   10.7157   -9.5264    0.0000 C   0  0  0  0  0  0  0  0  0  0  0  0
   10.7099   -8.6973    0.0000 C   0  0  0  0  0  0  0  0  0  0  0  0
    9.9943   -8.2913    0.0000 C   0  0  0  0  0  0  0  0  0  0  0  0
    9.2808   -7.0595    0.0000 C   0  0  0  0  0  0  0  0  0  0  0  0
    9.9958   -7.4743    0.0000 C   0  0  0  0  0  0  0  0  0  0  0  0
   10.7065   -7.0628    0.0000 C   0  0  0  0  0  0  0  0  0  0  0  0
   10.7077   -6.2374    0.0000 N   0  0  0  0  0  0  0  0  0  0  0  0
    9.9919   -5.8254    0.0000 C   0  0  0  0  0  0  0  0  0  0  0  0
    9.2749   -6.2388    0.0000 C   0  0  0  0  0  0  0  0  0  0  0  0
   11.4221   -5.8249    0.0000 C   0  0  0  0  0  0  0  0  0  0  0  0
   12.1365   -6.2374    0.0000 C   0  0  0  0  0  0  0  0  0  0  0  0
   11.4222   -5.0000    0.0000 O   0  0  0  0  0  0  0  0  0  0  0  0
   12.2206   -7.0577    0.0000 C   0  0  0  0  0  0  0  0  0  0  0  0
   13.0276   -7.2293    0.0000 N   0  0  0  0  0  0  0  0  0  0  0  0
   13.4401   -6.5148    0.0000 N   0  0  0  0  0  0  0  0  0  0  0  0
   12.8880   -5.9018    0.0000 C   0  0  0  0  0  0  0  0  0  0  0  0
   13.0590   -5.0948    0.0000 C   0  0  0  0  0  0  0  0  0  0  0  0
   11.6069   -7.6089    0.0000 C   0  0  0  0  0  0  0  0  0  0  0  0
    5.7146   -9.9579    0.0000 C   0  0  0  0  0  0  0  0  0  0  0  0
    5.0000   -9.5446    0.0000 F   0  0  0  0  0  0  0  0  0  0  0  0
    5.7139  -10.7834    0.0000 F   0  0  0  0  0  0  0  0  0  0  0  0
    5.5015   -9.1604    0.0000 F   0  0  0  0  0  0  0  0  0  0  0  0
  3  4  2  0  0  0  0
  7  8  1  0  0  0  0
  7  9  1  0  0  0  0
  4  5  1  0  0  0  0
 15 20  1  0  0  0  0
 16 17  1  0  0  0  0
 17 18  1  0  0  0  0
 18 19  1  0  0  0  0
 19 20  1  0  0  0  0
  8 10  2  0  0  0  0
 18 21  1  0  0  0  0
  2  3  1  0  0  0  0
 21 22  1  0  0  0  0
 10 11  1  0  0  0  0
 21 23  2  0  0  0  0
 22 24  2  0  0  0  0
  5  6  2  0  0  0  0
 11 12  2  0  0  0  0
  6  1  1  0  0  0  0
 12 13  1  0  0  0  0
 24 25  1  0  0  0  0
 25 26  1  0  0  0  0
 26 27  2  0  0  0  0
 27 22  1  0  0  0  0
  1  2  2  0  0  0  0
 27 28  1  0  0  0  0
 13 14  2  0  0  0  0
 24 29  1  0  0  0  0
 14  8  1  0  0  0  0
  5  7  1  0  0  0  0
  9 15  1  0  0  0  0
 15 16  1  0  0  0  0
  2 30  1  0  0  0  0
 30 31  1  0  0  0  0
 30 32  1  0  0  0  0
 30 33  1  0  0  0  0
M  END
> <Molecule Name>
DNDI1576384

> <CDD Number>
CDD-1535781

> <IC50_uM>
0.0265 (n=1)

$$$$

SketchEl molfile

 31 34  0  0  0  0  0  0  0  0999 V2000
    6.4320   -9.9545    0.0000 C   0  0  0  0  0  0  0  0  0  0  0  0
    6.4305  -10.7829    0.0000 C   0  0  0  0  0  0  0  0  0  0  0  0
    7.1442  -11.1960    0.0000 C   0  0  0  0  0  0  0  0  0  0  0  0
    7.8602  -10.7822    0.0000 C   0  0  0  0  0  0  0  0  0  0  0  0
    7.8562   -9.9495    0.0000 C   0  0  0  0  0  0  0  0  0  0  0  0
    7.1417   -9.5415    0.0000 C   0  0  0  0  0  0  0  0  0  0  0  0
    5.7152  -11.1944    0.0000 C   0  0  0  0  0  0  0  0  0  0  0  0
    8.5689   -9.5335    0.0000 C   0  0  0  0  0  0  0  0  0  0  0  0
    9.2854   -9.9426    0.0000 C   0  0  0  0  0  0  0  0  0  0  0  0
    8.5649   -8.7083    0.0000 N   0  0  0  0  0  0  0  0  0  0  0  0
    9.2841  -10.7650    0.0000 C   0  0  0  0  0  0  0  0  0  0  0  0
    9.9998  -11.1741    0.0000 N   0  0  0  0  0  0  0  0  0  0  0  0
   10.7134  -10.7581    0.0000 C   0  0  0  0  0  0  0  0  0  0  0  0
   10.7068   -9.9287    0.0000 C   0  0  0  0  0  0  0  0  0  0  0  0
    9.9905   -9.5233    0.0000 C   0  0  0  0  0  0  0  0  0  0  0  0
    9.2793   -8.2982    0.0000 C   0  0  0  0  0  0  0  0  0  0  0  0
    9.2774   -7.4766    0.0000 C   0  0  0  0  0  0  0  0  0  0  0  0
    8.5626   -7.0636    0.0000 C   0  0  0  0  0  0  0  0  0  0  0  0
    7.8482   -7.4784    0.0000 C   0  0  0  0  0  0  0  0  0  0  0  0
    7.8484   -8.3062    0.0000 C   0  0  0  0  0  0  0  0  0  0  0  0
    8.5618   -6.2384    0.0000 N   0  0  0  0  0  0  0  0  0  0  0  0
    9.2760   -5.8252    0.0000 C   0  0  0  0  0  0  0  0  0  0  0  0
    9.2752   -5.0000    0.0000 O   0  0  0  0  0  0  0  0  0  0  0  0
    9.9910   -6.2370    0.0000 C   0  0  0  0  0  0  0  0  0  0  0  0
   10.0789   -7.0540    0.0000 C   0  0  0  0  0  0  0  0  0  0  0  0
   10.8862   -7.2248    0.0000 N   0  0  0  0  0  0  0  0  0  0  0  0
   11.2981   -6.5097    0.0000 N   0  0  0  0  0  0  0  0  0  0  0  0
   10.7453   -5.8972    0.0000 C   0  0  0  0  0  0  0  0  0  0  0  0
    5.0000  -11.6059    0.0000 N   0  0  0  0  0  0  0  0  0  0  0  0
    9.4666   -7.6072    0.0000 C   0  0  0  0  0  0  0  0  0  0  0  0
   10.9146   -5.0896    0.0000 C   0  0  0  0  0  0  0  0  0  0  0  0
  1  2  2  0  0  0  0
  2  3  1  0  0  0  0
  3  4  2  0  0  0  0
  4  5  1  0  0  0  0
  5  6  2  0  0  0  0
  6  1  1  0  0  0  0
  2  7  1  0  0  0  0
  5  8  1  0  0  0  0
  8  9  1  0  0  0  0
  8 10  1  0  0  0  0
  9 11  2  0  0  0  0
 11 12  1  0  0  0  0
 12 13  2  0  0  0  0
 13 14  1  0  0  0  0
 14 15  2  0  0  0  0
 15  9  1  0  0  0  0
 10 16  1  0  0  0  0
 10 20  1  0  0  0  0
 16 17  1  0  0  0  0
 17 18  1  0  0  0  0
 18 19  1  0  0  0  0
 19 20  1  0  0  0  0
 18 21  1  0  0  0  0
 21 22  1  0  0  0  0
 22 23  2  0  0  0  0
 22 24  1  0  0  0  0
 24 25  2  0  0  0  0
 25 26  1  0  0  0  0
 26 27  1  0  0  0  0
 27 28  2  0  0  0  0
 28 24  1  0  0  0  0
  7 29  3  0  0  0  0
 25 30  1  0  0  0  0
 28 31  1  0  0  0  0
M  END
> <Molecule Name>
DNDI1576385

> <CDD Number>
CDD-1535782

> <IC50_uM>
0.185 (n=1)

$$$$

SketchEl molfile

 32 35  0  0  0  0  0  0  0  0999 V2000
    6.4308   -9.1387    0.0000 C   0  0  0  0  0  0  0  0  0  0  0  0
    6.4292   -9.9671    0.0000 C   0  0  0  0  0  0  0  0  0  0  0  0
    7.1429  -10.3802    0.0000 C   0  0  0  0  0  0  0  0  0  0  0  0
    7.8589   -9.9665    0.0000 C   0  0  0  0  0  0  0  0  0  0  0  0
    7.8550   -9.1337    0.0000 C   0  0  0  0  0  0  0  0  0  0  0  0
    7.1405   -8.7258    0.0000 C   0  0  0  0  0  0  0  0  0  0  0  0
    8.5676   -8.7177    0.0000 C   0  0  0  0  0  0  0  0  0  0  0  0
    9.2842   -9.1269    0.0000 C   0  0  0  0  0  0  0  0  0  0  0  0
    8.5637   -7.8926    0.0000 N   0  0  0  0  0  0  0  0  0  0  0  0
    9.2828   -9.9493    0.0000 C   0  0  0  0  0  0  0  0  0  0  0  0
    9.9985  -10.3584    0.0000 N   0  0  0  0  0  0  0  0  0  0  0  0
   10.7121   -9.9423    0.0000 C   0  0  0  0  0  0  0  0  0  0  0  0
   10.7055   -9.1129    0.0000 C   0  0  0  0  0  0  0  0  0  0  0  0
    9.9892   -8.7076    0.0000 C   0  0  0  0  0  0  0  0  0  0  0  0
    9.2763   -7.4766    0.0000 C   0  0  0  0  0  0  0  0  0  0  0  0
    9.9885   -7.8868    0.0000 C   0  0  0  0  0  0  0  0  0  0  0  0
   10.6990   -7.4743    0.0000 C   0  0  0  0  0  0  0  0  0  0  0  0
   10.6993   -6.6488    0.0000 N   0  0  0  0  0  0  0  0  0  0  0  0
    9.9829   -6.2375    0.0000 C   0  0  0  0  0  0  0  0  0  0  0  0
    9.2662   -6.6516    0.0000 C   0  0  0  0  0  0  0  0  0  0  0  0
   11.4135   -6.2355    0.0000 C   0  0  0  0  0  0  0  0  0  0  0  0
   12.1264   -6.6504    0.0000 C   0  0  0  0  0  0  0  0  0  0  0  0
   12.8401   -6.2378    0.0000 C   0  0  0  0  0  0  0  0  0  0  0  0
   12.8397   -5.4117    0.0000 C   0  0  0  0  0  0  0  0  0  0  0  0
   12.1197   -5.0000    0.0000 C   0  0  0  0  0  0  0  0  0  0  0  0
   11.4089   -5.4150    0.0000 C   0  0  0  0  0  0  0  0  0  0  0  0
   12.1252   -7.4755    0.0000 F   0  0  0  0  0  0  0  0  0  0  0  0
   10.6922   -5.0062    0.0000 F   0  0  0  0  0  0  0  0  0  0  0  0
    5.7140  -10.3786    0.0000 C   0  0  0  0  0  0  0  0  0  0  0  0
    5.0000   -9.9650    0.0000 F   0  0  0  0  0  0  0  0  0  0  0  0
    5.7128  -11.2038    0.0000 F   0  0  0  0  0  0  0  0  0  0  0  0
    5.5016   -9.5813    0.0000 F   0  0  0  0  0  0  0  0  0  0  0  0
  1  2  2  0  0  0  0
  2  3  1  0  0  0  0
  3  4  2  0  0  0  0
  4  5  1  0  0  0  0
  5  6  2  0  0  0  0
  6  1  1  0  0  0  0
  5  7  1  0  0  0  0
  7  8  1  0  0  0  0
  7  9  1  0  0  0  0
  8 10  2  0  0  0  0
 10 11  1  0  0  0  0
 11 12  2  0  0  0  0
 12 13  1  0  0  0  0
 13 14  2  0  0  0  0
 14  8  1  0  0  0  0
  9 15  1  0  0  0  0
 15 16  1  0  0  0  0
 15 20  1  0  0  0  0
 16 17  1  0  0  0  0
 17 18  1  0  0  0  0
 18 19  1  0  0  0  0
 19 20  1  0  0  0  0
 18 21  1  0  0  0  0
 21 22  2  0  0  0  0
 22 23  1  0  0  0  0
 23 24  2  0  0  0  0
 24 25  1  0  0  0  0
 25 26  2  0  0  0  0
 26 21  1  0  0  0  0
 22 27  1  0  0  0  0
 26 28  1  0  0  0  0
  2 29  1  0  0  0  0
 29 30  1  0  0  0  0
 29 31  1  0  0  0  0
 29 32  1  0  0  0  0
M  END
> <Molecule Name>
DNDI1576386

> <CDD Number>
CDD-1535783

> <IC50_uM>
0.018 (n=1)

$$$$

SketchEl molfile

 23 25  0  0  0  0  0  0  0  0999 V2000
    7.8583   -7.4750    0.0000 C   0  0  0  0  0  0  0  0  0  0  0  0
    7.1458   -7.8917    0.0000 C   0  0  0  0  0  0  0  0  0  0  0  0
    7.8541   -6.6500    0.0000 C   0  0  0  0  0  0  0  0  0  0  0  0
    6.4291   -7.4792    0.0000 C   0  0  0  0  0  0  0  0  0  0  0  0
    7.1458   -8.7208    0.0000 C   0  0  0  0  0  0  0  0  0  0  0  0
    8.5749   -7.8833    0.0000 C   0  0  0  0  0  0  0  0  0  0  0  0
    5.7167   -7.8958    0.0000 C   0  0  0  0  0  0  0  0  0  0  0  0
    7.1333   -5.4250    0.0000 N   0  0  0  0  0  0  0  0  0  0  0  0
    8.5708   -6.2375    0.0000 C   0  0  0  0  0  0  0  0  0  0  0  0
    9.2874   -9.1166    0.0000 N   0  0  0  0  0  0  0  0  0  0  0  0
    7.1416   -6.2459    0.0000 C   0  0  0  0  0  0  0  0  0  0  0  0
    5.7167   -8.7208    0.0000 C   0  0  0  0  0  0  0  0  0  0  0  0
    7.8499   -8.3000    0.0000 O   0  0  0  0  0  0  0  0  0  0  0  0
    6.4250   -6.6542    0.0000 F   0  0  0  0  0  0  0  0  0  0  0  0
    8.5666   -5.4167    0.0000 C   0  0  0  0  0  0  0  0  0  0  0  0
    6.4291   -9.1333    0.0000 C   0  0  0  0  0  0  0  0  0  0  0  0
    8.5749   -8.7083    0.0000 C   0  0  0  0  0  0  0  0  0  0  0  0
    5.0000   -9.1333    0.0000 Cl  0  0  0  0  0  0  0  0  0  0  0  0
    9.2791   -5.0000    0.0000 F   0  0  0  0  0  0  0  0  0  0  0  0
    7.8499   -5.0042    0.0000 C   0  0  0  0  0  0  0  0  0  0  0  0
    9.2791   -7.4667    0.0000 C   0  0  0  0  0  0  0  0  0  0  0  0
   10.0041   -8.7000    0.0000 C   0  0  0  0  0  0  0  0  0  0  0  0
    9.9957   -7.8708    0.0000 C   0  0  0  0  0  0  0  0  0  0  0  0
  2  1  1  0  0  0  0
  3  1  1  0  0  0  0
  4  2  2  0  0  0  0
  5  2  1  0  0  0  0
  6  1  1  0  0  0  0
  7  4  1  0  0  0  0
  8 11  2  0  0  0  0
  9  3  2  0  0  0  0
 10 17  1  0  0  0  0
 11  3  1  0  0  0  0
 12 16  1  0  0  0  0
 13  1  1  0  0  0  0
 14  4  1  0  0  0  0
 15  9  1  0  0  0  0
 16  5  2  0  0  0  0
 17  6  2  0  0  0  0
 18 12  1  0  0  0  0
 19 15  1  0  0  0  0
 20 15  2  0  0  0  0
 21  6  1  0  0  0  0
 22 23  1  0  0  0  0
 23 21  2  0  0  0  0
  8 20  1  0  0  0  0
 22 10  2  0  0  0  0
 12  7  2  0  0  0  0
M  END
> <Molecule Name>
DNDI1578292

> <CDD Number>
CDD-1535784

> <IC50_uM>
0.2275 (n=1)

$$$$

SketchEl molfile

 28 31  0  0  0  0  0  0  0  0999 V2000
   10.2855   -6.6548    0.0000 N   0  0  0  0  0  0  0  0  0  0  0  0
   10.9983   -6.2380    0.0000 C   0  0  0  0  0  0  0  0  0  0  0  0
    5.7128  -10.1396    0.0000 C   0  0  0  0  0  0  0  0  0  0  0  0
    9.2809   -7.2384    0.0000 C   0  0  0  0  0  0  0  0  0  0  0  0
    8.5723   -8.4805    0.0000 C   0  0  0  0  0  0  0  0  0  0  0  0
    8.5681   -7.6552    0.0000 N   0  0  0  0  0  0  0  0  0  0  0  0
   10.0771   -7.4510    0.0000 C   0  0  0  0  0  0  0  0  0  0  0  0
    9.4893   -6.4422    0.0000 C   0  0  0  0  0  0  0  0  0  0  0  0
    6.4298   -9.7269    0.0000 C   0  0  0  0  0  0  0  0  0  0  0  0
   10.9900   -5.4210    0.0000 N   0  0  0  0  0  0  0  0  0  0  0  0
   11.7111   -6.6506    0.0000 N   0  0  0  0  0  0  0  0  0  0  0  0
    9.2893   -8.8890    0.0000 C   0  0  0  0  0  0  0  0  0  0  0  0
    7.8595   -8.8974    0.0000 C   0  0  0  0  0  0  0  0  0  0  0  0
   10.0021  -10.1229    0.0000 N   0  0  0  0  0  0  0  0  0  0  0  0
    7.1425  -10.1396    0.0000 C   0  0  0  0  0  0  0  0  0  0  0  0
    6.4298   -8.8974    0.0000 C   0  0  0  0  0  0  0  0  0  0  0  0
    7.8595   -9.7269    0.0000 C   0  0  0  0  0  0  0  0  0  0  0  0
    7.1425   -8.4847    0.0000 C   0  0  0  0  0  0  0  0  0  0  0  0
    5.0000   -9.7269    0.0000 F   0  0  0  0  0  0  0  0  0  0  0  0
    5.7128  -10.9649    0.0000 F   0  0  0  0  0  0  0  0  0  0  0  0
    5.5002   -9.3434    0.0000 F   0  0  0  0  0  0  0  0  0  0  0  0
    9.2893   -9.7144    0.0000 C   0  0  0  0  0  0  0  0  0  0  0  0
   12.4197   -5.4126    0.0000 C   0  0  0  0  0  0  0  0  0  0  0  0
   11.6986   -5.0000    0.0000 C   0  0  0  0  0  0  0  0  0  0  0  0
   12.4239   -6.2380    0.0000 C   0  0  0  0  0  0  0  0  0  0  0  0
    9.9937   -8.4722    0.0000 C   0  0  0  0  0  0  0  0  0  0  0  0
   10.7190   -9.7060    0.0000 C   0  0  0  0  0  0  0  0  0  0  0  0
   10.7107   -8.8765    0.0000 C   0  0  0  0  0  0  0  0  0  0  0  0
  2  1  1  0  0  0  0
  3  9  1  0  0  0  0
  4  8  1  0  0  0  0
  5  6  1  0  0  0  0
  6  4  1  0  0  0  0
  7  1  1  0  0  0  0
  8  1  1  0  0  0  0
  9 16  2  0  0  0  0
 10  2  1  0  0  0  0
 11  2  2  0  0  0  0
 12  5  1  0  0  0  0
 13  5  1  0  0  0  0
 14 22  1  0  0  0  0
 15 17  2  0  0  0  0
 16 18  1  0  0  0  0
 17 13  1  0  0  0  0
 18 13  2  0  0  0  0
 19  3  1  0  0  0  0
 20  3  1  0  0  0  0
 21  3  1  0  0  0  0
 22 12  2  0  0  0  0
 23 24  1  0  0  0  0
 24 10  2  0  0  0  0
 25 11  1  0  0  0  0
 26 12  1  0  0  0  0
 27 28  1  0  0  0  0
 28 26  2  0  0  0  0
  7  4  1  0  0  0  0
 23 25  2  0  0  0  0
 15  9  1  0  0  0  0
 27 14  2  0  0  0  0
M  END
> <Molecule Name>
DNDI1578293

> <CDD Number>
CDD-1535785

> <IC50_uM>
0.115 (n=1)

$$$$

SketchEl molfile

 29 31  0  0  0  0  0  0  0  0999 V2000
   10.2846   -6.2461    0.0000 N   0  0  0  0  0  0  0  0  0  0  0  0
   10.9973   -5.8294    0.0000 C   0  0  0  0  0  0  0  0  0  0  0  0
    5.7127   -9.7303    0.0000 C   0  0  0  0  0  0  0  0  0  0  0  0
    9.2802   -6.8296    0.0000 C   0  0  0  0  0  0  0  0  0  0  0  0
    8.5717   -8.0716    0.0000 C   0  0  0  0  0  0  0  0  0  0  0  0
    8.5675   -7.2464    0.0000 N   0  0  0  0  0  0  0  0  0  0  0  0
   11.7141   -6.2420    0.0000 O   0  0  0  0  0  0  0  0  0  0  0  0
    9.4886   -6.0336    0.0000 C   0  0  0  0  0  0  0  0  0  0  0  0
   10.0762   -7.0421    0.0000 C   0  0  0  0  0  0  0  0  0  0  0  0
    6.4295   -9.3177    0.0000 C   0  0  0  0  0  0  0  0  0  0  0  0
    9.2885   -8.4800    0.0000 C   0  0  0  0  0  0  0  0  0  0  0  0
    7.8590   -8.4883    0.0000 C   0  0  0  0  0  0  0  0  0  0  0  0
   10.9931   -5.0042    0.0000 O   0  0  0  0  0  0  0  0  0  0  0  0
   10.0012   -9.7136    0.0000 N   0  0  0  0  0  0  0  0  0  0  0  0
   12.4226   -5.8252    0.0000 C   0  0  0  0  0  0  0  0  0  0  0  0
    6.4295   -8.4883    0.0000 C   0  0  0  0  0  0  0  0  0  0  0  0
    7.1422   -9.7303    0.0000 C   0  0  0  0  0  0  0  0  0  0  0  0
    7.1422   -8.0757    0.0000 C   0  0  0  0  0  0  0  0  0  0  0  0
    7.8590   -9.3177    0.0000 C   0  0  0  0  0  0  0  0  0  0  0  0
    5.0000   -9.3177    0.0000 F   0  0  0  0  0  0  0  0  0  0  0  0
    5.7127  -10.5555    0.0000 F   0  0  0  0  0  0  0  0  0  0  0  0
    5.5001   -8.9343    0.0000 F   0  0  0  0  0  0  0  0  0  0  0  0
    9.2885   -9.3052    0.0000 C   0  0  0  0  0  0  0  0  0  0  0  0
    9.9929   -8.0632    0.0000 C   0  0  0  0  0  0  0  0  0  0  0  0
   10.7181   -9.2969    0.0000 C   0  0  0  0  0  0  0  0  0  0  0  0
   13.1436   -6.2295    0.0000 C   0  0  0  0  0  0  0  0  0  0  0  0
   12.4185   -5.0000    0.0000 C   0  0  0  0  0  0  0  0  0  0  0  0
   12.6435   -6.6170    0.0000 C   0  0  0  0  0  0  0  0  0  0  0  0
   10.7097   -8.4675    0.0000 C   0  0  0  0  0  0  0  0  0  0  0  0
  2  1  1  0  0  0  0
  3 10  1  0  0  0  0
  4  8  1  0  0  0  0
  5  6  1  0  0  0  0
  6  4  1  0  0  0  0
  7  2  1  0  0  0  0
  8  1  1  0  0  0  0
  9  1  1  0  0  0  0
 10 16  2  0  0  0  0
 11  5  1  0  0  0  0
 12  5  1  0  0  0  0
 13  2  2  0  0  0  0
 14 23  1  0  0  0  0
 15  7  1  0  0  0  0
 16 18  1  0  0  0  0
 17 19  2  0  0  0  0
 18 12  2  0  0  0  0
 19 12  1  0  0  0  0
 20  3  1  0  0  0  0
 21  3  1  0  0  0  0
 22  3  1  0  0  0  0
 23 11  2  0  0  0  0
 24 11  1  0  0  0  0
 25 29  1  0  0  0  0
 26 15  1  0  0  0  0
 27 15  1  0  0  0  0
 28 15  1  0  0  0  0
 29 24  2  0  0  0  0
  9  4  1  0  0  0  0
 17 10  1  0  0  0  0
 25 14  2  0  0  0  0
M  END
> <Molecule Name>
DNDI1578294

> <CDD Number>
CDD-1535786

> <IC50_uM>
0.095 (n=1)

$$$$

SketchEl molfile

 29 32  0  0  0  0  0  0  0  0999 V2000
   11.4182   -6.2336    0.0000 C   0  0  0  0  0  0  0  0  0  0  0  0
    9.2885   -9.1218    0.0000 C   0  0  0  0  0  0  0  0  0  0  0  0
    5.7127  -10.3721    0.0000 C   0  0  0  0  0  0  0  0  0  0  0  0
   10.7055   -6.6462    0.0000 N   0  0  0  0  0  0  0  0  0  0  0  0
    9.3802   -9.9428    0.0000 N   0  0  0  0  0  0  0  0  0  0  0  0
    8.5717   -8.7134    0.0000 C   0  0  0  0  0  0  0  0  0  0  0  0
    8.5675   -7.8882    0.0000 N   0  0  0  0  0  0  0  0  0  0  0  0
   10.5972   -9.3927    0.0000 S   0  0  0  0  0  0  0  0  0  0  0  0
   10.1887  -10.1095    0.0000 C   0  0  0  0  0  0  0  0  0  0  0  0
    6.4295   -9.9595    0.0000 C   0  0  0  0  0  0  0  0  0  0  0  0
   12.1267   -6.6504    0.0000 N   0  0  0  0  0  0  0  0  0  0  0  0
   11.4099   -5.4168    0.0000 N   0  0  0  0  0  0  0  0  0  0  0  0
   10.0429   -8.7842    0.0000 C   0  0  0  0  0  0  0  0  0  0  0  0
    7.8590   -9.1301    0.0000 C   0  0  0  0  0  0  0  0  0  0  0  0
    9.9887   -6.2378    0.0000 C   0  0  0  0  0  0  0  0  0  0  0  0
   10.7014   -7.4756    0.0000 C   0  0  0  0  0  0  0  0  0  0  0  0
    7.1422  -10.3721    0.0000 C   0  0  0  0  0  0  0  0  0  0  0  0
    6.4295   -9.1343    0.0000 C   0  0  0  0  0  0  0  0  0  0  0  0
    7.8590   -9.9595    0.0000 C   0  0  0  0  0  0  0  0  0  0  0  0
    7.1422   -8.7175    0.0000 C   0  0  0  0  0  0  0  0  0  0  0  0
    5.7127  -11.1973    0.0000 F   0  0  0  0  0  0  0  0  0  0  0  0
    5.5001   -9.5761    0.0000 F   0  0  0  0  0  0  0  0  0  0  0  0
    5.0000   -9.9595    0.0000 F   0  0  0  0  0  0  0  0  0  0  0  0
    9.2718   -6.6504    0.0000 C   0  0  0  0  0  0  0  0  0  0  0  0
    9.9929   -7.8840    0.0000 C   0  0  0  0  0  0  0  0  0  0  0  0
    9.2802   -7.4714    0.0000 C   0  0  0  0  0  0  0  0  0  0  0  0
   12.8435   -5.4126    0.0000 C   0  0  0  0  0  0  0  0  0  0  0  0
   12.1225   -5.0000    0.0000 C   0  0  0  0  0  0  0  0  0  0  0  0
   12.8435   -6.2378    0.0000 C   0  0  0  0  0  0  0  0  0  0  0  0
  2  6  1  0  0  0  0
  3 10  1  0  0  0  0
  4  1  1  0  0  0  0
  5  2  1  0  0  0  0
  6  7  1  0  0  0  0
  7 26  1  0  0  0  0
  8 13  1  0  0  0  0
  9  5  2  0  0  0  0
 10 18  2  0  0  0  0
 11  1  2  0  0  0  0
 12  1  1  0  0  0  0
 13  2  2  0  0  0  0
 14  6  1  0  0  0  0
 15  4  1  0  0  0  0
 16  4  1  0  0  0  0
 17 19  2  0  0  0  0
 18 20  1  0  0  0  0
 19 14  1  0  0  0  0
 20 14  2  0  0  0  0
 21  3  1  0  0  0  0
 22  3  1  0  0  0  0
 23  3  1  0  0  0  0
 24 15  1  0  0  0  0
 25 16  1  0  0  0  0
 26 24  1  0  0  0  0
 27 28  1  0  0  0  0
 28 12  2  0  0  0  0
 29 11  1  0  0  0  0
 27 29  2  0  0  0  0
 25 26  1  0  0  0  0
  8  9  1  0  0  0  0
 17 10  1  0  0  0  0
M  END
> <Molecule Name>
DNDI1578295

> <CDD Number>
CDD-1535787

> <IC50_uM>
> 1.0 (n=1)

$$$$

SketchEl molfile

 34 37  0  0  0  0  0  0  0  0999 V2000
   11.4129   -6.2302    0.0000 C   0  0  0  0  0  0  0  0  0  0  0  0
   10.6946   -5.8216    0.0000 C   0  0  0  0  0  0  0  0  0  0  0  0
    5.7140  -11.1850    0.0000 C   0  0  0  0  0  0  0  0  0  0  0  0
   11.4215   -7.0474    0.0000 C   0  0  0  0  0  0  0  0  0  0  0  0
   10.7075   -7.4603    0.0000 N   0  0  0  0  0  0  0  0  0  0  0  0
    8.5742   -9.5291    0.0000 C   0  0  0  0  0  0  0  0  0  0  0  0
    8.5699   -8.7033    0.0000 N   0  0  0  0  0  0  0  0  0  0  0  0
    6.4280  -10.7721    0.0000 C   0  0  0  0  0  0  0  0  0  0  0  0
    9.2882   -9.9377    0.0000 C   0  0  0  0  0  0  0  0  0  0  0  0
    7.8602   -9.9463    0.0000 C   0  0  0  0  0  0  0  0  0  0  0  0
   10.7032   -8.2904    0.0000 C   0  0  0  0  0  0  0  0  0  0  0  0
    9.9892   -7.0517    0.0000 C   0  0  0  0  0  0  0  0  0  0  0  0
   10.0022  -11.1678    0.0000 N   0  0  0  0  0  0  0  0  0  0  0  0
   10.6903   -5.0000    0.0000 F   0  0  0  0  0  0  0  0  0  0  0  0
    9.9849   -6.2388    0.0000 F   0  0  0  0  0  0  0  0  0  0  0  0
   11.2796   -5.2366    0.0000 F   0  0  0  0  0  0  0  0  0  0  0  0
    7.1419  -11.1850    0.0000 C   0  0  0  0  0  0  0  0  0  0  0  0
    6.4280   -9.9463    0.0000 C   0  0  0  0  0  0  0  0  0  0  0  0
    7.8602  -10.7721    0.0000 C   0  0  0  0  0  0  0  0  0  0  0  0
    7.1419   -9.5334    0.0000 C   0  0  0  0  0  0  0  0  0  0  0  0
    5.0000  -10.7721    0.0000 F   0  0  0  0  0  0  0  0  0  0  0  0
    5.7140  -12.0108    0.0000 F   0  0  0  0  0  0  0  0  0  0  0  0
    5.4989  -10.3893    0.0000 F   0  0  0  0  0  0  0  0  0  0  0  0
    9.2710   -7.4646    0.0000 C   0  0  0  0  0  0  0  0  0  0  0  0
    9.9936   -8.6990    0.0000 C   0  0  0  0  0  0  0  0  0  0  0  0
    9.2796   -8.2861    0.0000 C   0  0  0  0  0  0  0  0  0  0  0  0
   12.1226   -5.8129    0.0000 C   0  0  0  0  0  0  0  0  0  0  0  0
    9.2882  -10.7635    0.0000 C   0  0  0  0  0  0  0  0  0  0  0  0
   12.1269   -7.4646    0.0000 C   0  0  0  0  0  0  0  0  0  0  0  0
    9.9936   -9.5205    0.0000 C   0  0  0  0  0  0  0  0  0  0  0  0
   10.7204  -10.7549    0.0000 C   0  0  0  0  0  0  0  0  0  0  0  0
   12.8452   -6.2259    0.0000 C   0  0  0  0  0  0  0  0  0  0  0  0
   10.7118   -9.9248    0.0000 C   0  0  0  0  0  0  0  0  0  0  0  0
   12.8452   -7.0517    0.0000 C   0  0  0  0  0  0  0  0  0  0  0  0
  2  1  1  0  0  0  0
  3  8  1  0  0  0  0
  4  1  1  0  0  0  0
  5  4  1  0  0  0  0
  6  7  1  0  0  0  0
  7 26  1  0  0  0  0
  8 18  2  0  0  0  0
  9  6  1  0  0  0  0
 10  6  1  0  0  0  0
 11  5  1  0  0  0  0
 12  5  1  0  0  0  0
 13 28  1  0  0  0  0
 14  2  1  0  0  0  0
 15  2  1  0  0  0  0
 16  2  1  0  0  0  0
 17 19  2  0  0  0  0
 18 20  1  0  0  0  0
 19 10  1  0  0  0  0
 20 10  2  0  0  0  0
 21  3  1  0  0  0  0
 22  3  1  0  0  0  0
 23  3  1  0  0  0  0
 24 12  1  0  0  0  0
 25 11  1  0  0  0  0
 26 24  1  0  0  0  0
 27  1  2  0  0  0  0
 28  9  2  0  0  0  0
 29  4  2  0  0  0  0
 30  9  1  0  0  0  0
 31 13  2  0  0  0  0
 32 27  1  0  0  0  0
 33 30  2  0  0  0  0
 34 29  1  0  0  0  0
 32 34  2  0  0  0  0
 25 26  1  0  0  0  0
 17  8  1  0  0  0  0
 33 31  1  0  0  0  0
M  END
> <Molecule Name>
DNDI1596464

> <CDD Number>
CDD-1535788

> <IC50_uM>
0.009 (n=1)

$$$$

SketchEl molfile

 30 33  0  0  0  0  0  0  0  0999 V2000
   10.2845   -6.2419    0.0000 N   0  0  0  0  0  0  0  0  0  0  0  0
   10.9971   -5.8252    0.0000 C   0  0  0  0  0  0  0  0  0  0  0  0
    5.7127   -9.7260    0.0000 C   0  0  0  0  0  0  0  0  0  0  0  0
    9.2801   -6.8254    0.0000 C   0  0  0  0  0  0  0  0  0  0  0  0
    8.5716   -8.0673    0.0000 C   0  0  0  0  0  0  0  0  0  0  0  0
    8.5674   -7.2421    0.0000 N   0  0  0  0  0  0  0  0  0  0  0  0
    9.4885   -6.0294    0.0000 C   0  0  0  0  0  0  0  0  0  0  0  0
   10.0761   -7.0379    0.0000 C   0  0  0  0  0  0  0  0  0  0  0  0
    6.4295   -9.3134    0.0000 C   0  0  0  0  0  0  0  0  0  0  0  0
    9.2884   -8.4757    0.0000 C   0  0  0  0  0  0  0  0  0  0  0  0
    7.8590   -8.4841    0.0000 C   0  0  0  0  0  0  0  0  0  0  0  0
   10.9930   -5.0000    0.0000 O   0  0  0  0  0  0  0  0  0  0  0  0
   11.7140   -6.2378    0.0000 C   0  0  0  0  0  0  0  0  0  0  0  0
   10.0011   -9.7093    0.0000 N   0  0  0  0  0  0  0  0  0  0  0  0
    7.1421   -9.7260    0.0000 C   0  0  0  0  0  0  0  0  0  0  0  0
    6.4295   -8.4841    0.0000 C   0  0  0  0  0  0  0  0  0  0  0  0
    7.8590   -9.3134    0.0000 C   0  0  0  0  0  0  0  0  0  0  0  0
    7.1421   -8.0715    0.0000 C   0  0  0  0  0  0  0  0  0  0  0  0
    5.5001   -8.9300    0.0000 F   0  0  0  0  0  0  0  0  0  0  0  0
    5.0000   -9.3134    0.0000 F   0  0  0  0  0  0  0  0  0  0  0  0
    5.7127  -10.5512    0.0000 F   0  0  0  0  0  0  0  0  0  0  0  0
    9.2884   -9.3009    0.0000 C   0  0  0  0  0  0  0  0  0  0  0  0
    9.9928   -8.0590    0.0000 C   0  0  0  0  0  0  0  0  0  0  0  0
   10.7179   -9.2926    0.0000 C   0  0  0  0  0  0  0  0  0  0  0  0
   11.7140   -7.0629    0.0000 C   0  0  0  0  0  0  0  0  0  0  0  0
   12.4183   -5.8210    0.0000 C   0  0  0  0  0  0  0  0  0  0  0  0
   10.7096   -8.4632    0.0000 C   0  0  0  0  0  0  0  0  0  0  0  0
   12.4266   -7.4714    0.0000 C   0  0  0  0  0  0  0  0  0  0  0  0
   13.1351   -6.2253    0.0000 C   0  0  0  0  0  0  0  0  0  0  0  0
   13.1434   -7.0546    0.0000 C   0  0  0  0  0  0  0  0  0  0  0  0
  2  1  1  0  0  0  0
  3  9  1  0  0  0  0
  4  7  1  0  0  0  0
  5  6  1  0  0  0  0
  6  4  1  0  0  0  0
  7  1  1  0  0  0  0
  8  1  1  0  0  0  0
  9 16  2  0  0  0  0
 10  5  1  0  0  0  0
 11  5  1  0  0  0  0
 12  2  2  0  0  0  0
 13  2  1  0  0  0  0
 14 22  1  0  0  0  0
 15 17  2  0  0  0  0
 16 18  1  0  0  0  0
 17 11  1  0  0  0  0
 18 11  2  0  0  0  0
 19  3  1  0  0  0  0
 20  3  1  0  0  0  0
 21  3  1  0  0  0  0
 22 10  2  0  0  0  0
 23 10  1  0  0  0  0
 24 27  1  0  0  0  0
 25 13  2  0  0  0  0
 26 13  1  0  0  0  0
 27 23  2  0  0  0  0
 28 25  1  0  0  0  0
 29 26  2  0  0  0  0
 30 29  1  0  0  0  0
  8  4  1  0  0  0  0
 30 28  2  0  0  0  0
 15  9  1  0  0  0  0
 24 14  2  0  0  0  0
M  END
> <Molecule Name>
DNDI1596465

> <CDD Number>
CDD-1535789

> <IC50_uM>
0.189 (n=1)

$$$$

SketchEl molfile

 30 33  0  0  0  0  0  0  0  0999 V2000
   11.7129   -6.2376    0.0000 C   0  0  0  0  0  0  0  0  0  0  0  0
   10.2836   -6.2417    0.0000 N   0  0  0  0  0  0  0  0  0  0  0  0
   10.9962   -5.8250    0.0000 C   0  0  0  0  0  0  0  0  0  0  0  0
    5.7125   -9.7253    0.0000 C   0  0  0  0  0  0  0  0  0  0  0  0
   12.4671   -5.8959    0.0000 C   0  0  0  0  0  0  0  0  0  0  0  0
   13.0213   -6.5042    0.0000 N   0  0  0  0  0  0  0  0  0  0  0  0
   11.8004   -7.0543    0.0000 S   0  0  0  0  0  0  0  0  0  0  0  0
    9.2794   -6.8251    0.0000 C   0  0  0  0  0  0  0  0  0  0  0  0
    8.5710   -8.0668    0.0000 C   0  0  0  0  0  0  0  0  0  0  0  0
    8.5669   -7.2418    0.0000 N   0  0  0  0  0  0  0  0  0  0  0  0
   12.6088   -7.2209    0.0000 C   0  0  0  0  0  0  0  0  0  0  0  0
   10.0753   -7.0376    0.0000 C   0  0  0  0  0  0  0  0  0  0  0  0
    9.4878   -6.0292    0.0000 C   0  0  0  0  0  0  0  0  0  0  0  0
    6.4292   -9.3127    0.0000 C   0  0  0  0  0  0  0  0  0  0  0  0
    9.2877   -8.4752    0.0000 C   0  0  0  0  0  0  0  0  0  0  0  0
   10.9920   -5.0000    0.0000 O   0  0  0  0  0  0  0  0  0  0  0  0
    7.8585   -8.4835    0.0000 C   0  0  0  0  0  0  0  0  0  0  0  0
   10.0003   -9.7086    0.0000 N   0  0  0  0  0  0  0  0  0  0  0  0
    7.1418   -9.7253    0.0000 C   0  0  0  0  0  0  0  0  0  0  0  0
    6.4292   -8.4835    0.0000 C   0  0  0  0  0  0  0  0  0  0  0  0
    7.8585   -9.3127    0.0000 C   0  0  0  0  0  0  0  0  0  0  0  0
    7.1418   -8.0710    0.0000 C   0  0  0  0  0  0  0  0  0  0  0  0
    5.0000   -9.3127    0.0000 F   0  0  0  0  0  0  0  0  0  0  0  0
    5.7125  -10.5503    0.0000 F   0  0  0  0  0  0  0  0  0  0  0  0
    5.5000   -8.9294    0.0000 F   0  0  0  0  0  0  0  0  0  0  0  0
    9.2877   -9.3002    0.0000 C   0  0  0  0  0  0  0  0  0  0  0  0
   12.6338   -5.0875    0.0000 C   0  0  0  0  0  0  0  0  0  0  0  0
    9.9920   -8.0585    0.0000 C   0  0  0  0  0  0  0  0  0  0  0  0
   10.7170   -9.2919    0.0000 C   0  0  0  0  0  0  0  0  0  0  0  0
   10.7087   -8.4627    0.0000 C   0  0  0  0  0  0  0  0  0  0  0  0
  2  3  1  0  0  0  0
  3  1  1  0  0  0  0
  4 14  1  0  0  0  0
  5  1  2  0  0  0  0
  6  5  1  0  0  0  0
  7  1  1  0  0  0  0
  8 13  1  0  0  0  0
  9 10  1  0  0  0  0
 10  8  1  0  0  0  0
 11  7  1  0  0  0  0
 12  2  1  0  0  0  0
 13  2  1  0  0  0  0
 14 20  2  0  0  0  0
 15  9  1  0  0  0  0
 16  3  2  0  0  0  0
 17  9  1  0  0  0  0
 18 26  1  0  0  0  0
 19 21  2  0  0  0  0
 20 22  1  0  0  0  0
 21 17  1  0  0  0  0
 22 17  2  0  0  0  0
 23  4  1  0  0  0  0
 24  4  1  0  0  0  0
 25  4  1  0  0  0  0
 26 15  2  0  0  0  0
 27  5  1  0  0  0  0
 28 15  1  0  0  0  0
 29 30  1  0  0  0  0
 30 28  2  0  0  0  0
  6 11  2  0  0  0  0
 12  8  1  0  0  0  0
 19 14  1  0  0  0  0
 29 18  2  0  0  0  0
M  END
> <Molecule Name>
DNDI1596466

> <CDD Number>
CDD-1535790

> <IC50_uM>
0.186 (n=1)

$$$$

SketchEl molfile

 32 35  0  0  0  0  0  0  0  0999 V2000
    5.7127  -10.7768    0.0000 C   0  0  0  0  0  0  0  0  0  0  0  0
   10.7060   -7.0506    0.0000 N   0  0  0  0  0  0  0  0  0  0  0  0
    8.5720   -9.1180    0.0000 C   0  0  0  0  0  0  0  0  0  0  0  0
   11.4188   -6.6380    0.0000 C   0  0  0  0  0  0  0  0  0  0  0  0
    9.9766   -5.0000    0.0000 N   0  0  0  0  0  0  0  0  0  0  0  0
   10.6935   -5.4126    0.0000 C   0  0  0  0  0  0  0  0  0  0  0  0
    8.5678   -8.2927    0.0000 N   0  0  0  0  0  0  0  0  0  0  0  0
   11.4104   -5.8211    0.0000 C   0  0  0  0  0  0  0  0  0  0  0  0
    6.4296  -10.3642    0.0000 C   0  0  0  0  0  0  0  0  0  0  0  0
    9.2889   -9.5264    0.0000 C   0  0  0  0  0  0  0  0  0  0  0  0
    7.8593   -9.5348    0.0000 C   0  0  0  0  0  0  0  0  0  0  0  0
    9.9891   -6.6422    0.0000 C   0  0  0  0  0  0  0  0  0  0  0  0
   10.7019   -7.8801    0.0000 C   0  0  0  0  0  0  0  0  0  0  0  0
   10.0016  -10.7602    0.0000 N   0  0  0  0  0  0  0  0  0  0  0  0
    7.1424  -10.7768    0.0000 C   0  0  0  0  0  0  0  0  0  0  0  0
    6.4296   -9.5389    0.0000 C   0  0  0  0  0  0  0  0  0  0  0  0
    7.8593  -10.3642    0.0000 C   0  0  0  0  0  0  0  0  0  0  0  0
    7.1424   -9.1221    0.0000 C   0  0  0  0  0  0  0  0  0  0  0  0
    5.5002   -9.9807    0.0000 F   0  0  0  0  0  0  0  0  0  0  0  0
    5.0000  -10.3642    0.0000 F   0  0  0  0  0  0  0  0  0  0  0  0
    5.7127  -11.6021    0.0000 F   0  0  0  0  0  0  0  0  0  0  0  0
    9.2722   -7.0548    0.0000 C   0  0  0  0  0  0  0  0  0  0  0  0
    9.9933   -8.2885    0.0000 C   0  0  0  0  0  0  0  0  0  0  0  0
    9.2806   -7.8759    0.0000 C   0  0  0  0  0  0  0  0  0  0  0  0
    9.2889  -10.3517    0.0000 C   0  0  0  0  0  0  0  0  0  0  0  0
   12.1273   -7.0548    0.0000 C   0  0  0  0  0  0  0  0  0  0  0  0
   12.1232   -5.4042    0.0000 C   0  0  0  0  0  0  0  0  0  0  0  0
    9.9933   -9.1096    0.0000 C   0  0  0  0  0  0  0  0  0  0  0  0
   10.7185  -10.3434    0.0000 C   0  0  0  0  0  0  0  0  0  0  0  0
   10.7102   -9.5139    0.0000 C   0  0  0  0  0  0  0  0  0  0  0  0
   12.8442   -6.6422    0.0000 C   0  0  0  0  0  0  0  0  0  0  0  0
   12.8442   -5.8169    0.0000 C   0  0  0  0  0  0  0  0  0  0  0  0
  2 12  1  0  0  0  0
  3 11  1  0  0  0  0
  4  2  1  0  0  0  0
  5  6  3  0  0  0  0
  6  8  1  0  0  0  0
  7  3  1  0  0  0  0
  8  4  1  0  0  0  0
  9  1  1  0  0  0  0
 10  3  1  0  0  0  0
 11 18  2  0  0  0  0
 12 22  1  0  0  0  0
 13 23  1  0  0  0  0
 14 25  1  0  0  0  0
 15  9  1  0  0  0  0
 16  9  2  0  0  0  0
 17 15  2  0  0  0  0
 18 16  1  0  0  0  0
 19  1  1  0  0  0  0
 20  1  1  0  0  0  0
 21  1  1  0  0  0  0
 22 24  1  0  0  0  0
 23 24  1  0  0  0  0
 24  7  1  0  0  0  0
 25 10  2  0  0  0  0
 26  4  2  0  0  0  0
 27  8  2  0  0  0  0
 28 10  1  0  0  0  0
 29 30  1  0  0  0  0
 30 28  2  0  0  0  0
 31 26  1  0  0  0  0
 32 27  1  0  0  0  0
 11 17  1  0  0  0  0
  2 13  1  0  0  0  0
 29 14  2  0  0  0  0
 32 31  2  0  0  0  0
M  END
> <Molecule Name>
DNDI1596473

> <CDD Number>
CDD-1535791

> <IC50_uM>
0.007 (n=1)

$$$$

SketchEl molfile

 32 35  0  0  0  0  0  0  0  0999 V2000
    9.9949   -6.2373    0.0000 C   0  0  0  0  0  0  0  0  0  0  0  0
   10.7489   -5.8998    0.0000 N   0  0  0  0  0  0  0  0  0  0  0  0
    9.2783   -5.8248    0.0000 C   0  0  0  0  0  0  0  0  0  0  0  0
    5.7124  -11.1905    0.0000 C   0  0  0  0  0  0  0  0  0  0  0  0
    8.5660   -8.7076    0.0000 N   0  0  0  0  0  0  0  0  0  0  0  0
   10.0824   -7.0579    0.0000 C   0  0  0  0  0  0  0  0  0  0  0  0
   11.3029   -6.5122    0.0000 C   0  0  0  0  0  0  0  0  0  0  0  0
   10.8905   -7.2287    0.0000 S   0  0  0  0  0  0  0  0  0  0  0  0
    8.5660   -6.2373    0.0000 N   0  0  0  0  0  0  0  0  0  0  0  0
    8.5701   -9.5324    0.0000 C   0  0  0  0  0  0  0  0  0  0  0  0
    6.4289  -10.7780    0.0000 C   0  0  0  0  0  0  0  0  0  0  0  0
    9.2867   -9.9407    0.0000 C   0  0  0  0  0  0  0  0  0  0  0  0
    7.8578   -9.9490    0.0000 C   0  0  0  0  0  0  0  0  0  0  0  0
    9.2783   -8.2952    0.0000 C   0  0  0  0  0  0  0  0  0  0  0  0
    7.8494   -8.3035    0.0000 C   0  0  0  0  0  0  0  0  0  0  0  0
    9.2783   -5.0000    0.0000 O   0  0  0  0  0  0  0  0  0  0  0  0
    9.9990  -11.1738    0.0000 N   0  0  0  0  0  0  0  0  0  0  0  0
    6.4289   -9.9490    0.0000 C   0  0  0  0  0  0  0  0  0  0  0  0
    7.1413  -11.1905    0.0000 C   0  0  0  0  0  0  0  0  0  0  0  0
    5.0000  -10.7780    0.0000 F   0  0  0  0  0  0  0  0  0  0  0  0
    5.7124  -12.0153    0.0000 F   0  0  0  0  0  0  0  0  0  0  0  0
    5.4999  -10.3948    0.0000 F   0  0  0  0  0  0  0  0  0  0  0  0
    7.8578  -10.7780    0.0000 C   0  0  0  0  0  0  0  0  0  0  0  0
    7.1413   -9.5366    0.0000 C   0  0  0  0  0  0  0  0  0  0  0  0
    8.5660   -7.0621    0.0000 C   0  0  0  0  0  0  0  0  0  0  0  0
    7.8494   -7.4745    0.0000 C   0  0  0  0  0  0  0  0  0  0  0  0
    9.2783   -7.4745    0.0000 C   0  0  0  0  0  0  0  0  0  0  0  0
    9.2867  -10.7655    0.0000 C   0  0  0  0  0  0  0  0  0  0  0  0
   12.1236   -6.4289    0.0000 C   0  0  0  0  0  0  0  0  0  0  0  0
    9.9907   -9.5241    0.0000 C   0  0  0  0  0  0  0  0  0  0  0  0
   10.7156  -10.7572    0.0000 C   0  0  0  0  0  0  0  0  0  0  0  0
   10.7072   -9.9282    0.0000 C   0  0  0  0  0  0  0  0  0  0  0  0
  2  1  1  0  0  0  0
  3  1  1  0  0  0  0
  4 11  1  0  0  0  0
  5 15  1  0  0  0  0
  6  1  2  0  0  0  0
  7  2  2  0  0  0  0
  8  6  1  0  0  0  0
  9  3  1  0  0  0  0
 10  5  1  0  0  0  0
 11 18  2  0  0  0  0
 12 10  1  0  0  0  0
 13 10  1  0  0  0  0
 14 27  1  0  0  0  0
 15 26  1  0  0  0  0
 16  3  2  0  0  0  0
 17 28  1  0  0  0  0
 18 24  1  0  0  0  0
 19 23  2  0  0  0  0
 20  4  1  0  0  0  0
 21  4  1  0  0  0  0
 22  4  1  0  0  0  0
 23 13  1  0  0  0  0
 24 13  2  0  0  0  0
 25  9  1  0  0  0  0
 26 25  1  0  0  0  0
 27 25  1  0  0  0  0
 28 12  2  0  0  0  0
 29  7  1  0  0  0  0
 30 12  1  0  0  0  0
 31 32  1  0  0  0  0
 32 30  2  0  0  0  0
  7  8  1  0  0  0  0
 14  5  1  0  0  0  0
 19 11  1  0  0  0  0
 31 17  2  0  0  0  0
M  END
> <Molecule Name>
DNDI1599448

> <CDD Number>
CDD-1535792

> <IC50_uM>
0.0175 (n=1)

$$$$

SketchEl molfile

 32 35  0  0  0  0  0  0  0  0999 V2000
    9.9952   -6.2373    0.0000 C   0  0  0  0  0  0  0  0  0  0  0  0
   10.7493   -5.8999    0.0000 N   0  0  0  0  0  0  0  0  0  0  0  0
    9.2786   -5.8249    0.0000 C   0  0  0  0  0  0  0  0  0  0  0  0
    5.7124  -11.1909    0.0000 C   0  0  0  0  0  0  0  0  0  0  0  0
    8.5662   -8.7079    0.0000 N   0  0  0  0  0  0  0  0  0  0  0  0
   10.0827   -7.0581    0.0000 C   0  0  0  0  0  0  0  0  0  0  0  0
   11.3034   -6.5123    0.0000 C   0  0  0  0  0  0  0  0  0  0  0  0
   10.8910   -7.2289    0.0000 O   0  0  0  0  0  0  0  0  0  0  0  0
    8.5662   -6.2373    0.0000 N   0  0  0  0  0  0  0  0  0  0  0  0
    8.5704   -9.5328    0.0000 C   0  0  0  0  0  0  0  0  0  0  0  0
    6.4290  -10.7785    0.0000 C   0  0  0  0  0  0  0  0  0  0  0  0
    9.2870   -9.9411    0.0000 C   0  0  0  0  0  0  0  0  0  0  0  0
    7.8580   -9.9494    0.0000 C   0  0  0  0  0  0  0  0  0  0  0  0
    9.2786   -8.2954    0.0000 C   0  0  0  0  0  0  0  0  0  0  0  0
    7.8497   -8.3038    0.0000 C   0  0  0  0  0  0  0  0  0  0  0  0
    9.2786   -5.0000    0.0000 O   0  0  0  0  0  0  0  0  0  0  0  0
    9.9994  -11.1742    0.0000 N   0  0  0  0  0  0  0  0  0  0  0  0
    6.4290   -9.9536    0.0000 C   0  0  0  0  0  0  0  0  0  0  0  0
    7.1414  -11.1909    0.0000 C   0  0  0  0  0  0  0  0  0  0  0  0
    5.0000  -10.7785    0.0000 F   0  0  0  0  0  0  0  0  0  0  0  0
    5.7124  -12.0158    0.0000 F   0  0  0  0  0  0  0  0  0  0  0  0
    5.4999  -10.3952    0.0000 F   0  0  0  0  0  0  0  0  0  0  0  0
    7.8580  -10.7785    0.0000 C   0  0  0  0  0  0  0  0  0  0  0  0
    7.1414   -9.5369    0.0000 C   0  0  0  0  0  0  0  0  0  0  0  0
    8.5662   -7.0622    0.0000 C   0  0  0  0  0  0  0  0  0  0  0  0
    7.8497   -7.4747    0.0000 C   0  0  0  0  0  0  0  0  0  0  0  0
    9.2786   -7.4747    0.0000 C   0  0  0  0  0  0  0  0  0  0  0  0
    9.2870  -10.7660    0.0000 C   0  0  0  0  0  0  0  0  0  0  0  0
   12.1241   -6.4290    0.0000 C   0  0  0  0  0  0  0  0  0  0  0  0
    9.9911   -9.5244    0.0000 C   0  0  0  0  0  0  0  0  0  0  0  0
   10.7160  -10.7576    0.0000 C   0  0  0  0  0  0  0  0  0  0  0  0
   10.7076   -9.9286    0.0000 C   0  0  0  0  0  0  0  0  0  0  0  0
  2  1  1  0  0  0  0
  3  1  1  0  0  0  0
  4 11  1  0  0  0  0
  5 15  1  0  0  0  0
  6  1  2  0  0  0  0
  7  2  2  0  0  0  0
  8  6  1  0  0  0  0
  9  3  1  0  0  0  0
 10  5  1  0  0  0  0
 11 18  2  0  0  0  0
 12 10  1  0  0  0  0
 13 10  1  0  0  0  0
 14 27  1  0  0  0  0
 15 26  1  0  0  0  0
 16  3  2  0  0  0  0
 17 28  1  0  0  0  0
 18 24  1  0  0  0  0
 19 23  2  0  0  0  0
 20  4  1  0  0  0  0
 21  4  1  0  0  0  0
 22  4  1  0  0  0  0
 23 13  1  0  0  0  0
 24 13  2  0  0  0  0
 25  9  1  0  0  0  0
 26 25  1  0  0  0  0
 27 25  1  0  0  0  0
 28 12  2  0  0  0  0
 29  7  1  0  0  0  0
 30 12  1  0  0  0  0
 31 32  1  0  0  0  0
 32 30  2  0  0  0  0
  7  8  1  0  0  0  0
 14  5  1  0  0  0  0
 19 11  1  0  0  0  0
 31 17  2  0  0  0  0
M  END
> <Molecule Name>
DNDI1599449

> <CDD Number>
CDD-1535793

> <IC50_uM>
0.0195 (n=1)

$$$$

SketchEl molfile

 36 39  0  0  0  0  0  0  0  0999 V2000
    9.9950   -6.6956    0.0000 C   0  0  0  0  0  0  0  0  0  0  0  0
   10.7490   -6.3582    0.0000 N   0  0  0  0  0  0  0  0  0  0  0  0
   11.3031   -6.9706    0.0000 N   0  0  0  0  0  0  0  0  0  0  0  0
    9.2785   -6.2832    0.0000 C   0  0  0  0  0  0  0  0  0  0  0  0
   10.0825   -7.5163    0.0000 C   0  0  0  0  0  0  0  0  0  0  0  0
    5.7124  -11.6489    0.0000 C   0  0  0  0  0  0  0  0  0  0  0  0
    8.5661   -9.1660    0.0000 N   0  0  0  0  0  0  0  0  0  0  0  0
   10.8907   -7.6871    0.0000 C   0  0  0  0  0  0  0  0  0  0  0  0
    8.5661   -6.6956    0.0000 N   0  0  0  0  0  0  0  0  0  0  0  0
   10.9198   -5.5541    0.0000 C   0  0  0  0  0  0  0  0  0  0  0  0
    8.5702   -9.9909    0.0000 C   0  0  0  0  0  0  0  0  0  0  0  0
    6.4289  -11.2365    0.0000 C   0  0  0  0  0  0  0  0  0  0  0  0
    9.2868  -10.3991    0.0000 C   0  0  0  0  0  0  0  0  0  0  0  0
    9.2785   -5.4583    0.0000 O   0  0  0  0  0  0  0  0  0  0  0  0
    7.8579  -10.4075    0.0000 C   0  0  0  0  0  0  0  0  0  0  0  0
    9.2785   -8.7536    0.0000 C   0  0  0  0  0  0  0  0  0  0  0  0
    7.8495   -8.7619    0.0000 C   0  0  0  0  0  0  0  0  0  0  0  0
    9.9992  -11.6323    0.0000 N   0  0  0  0  0  0  0  0  0  0  0  0
    7.1413  -11.6489    0.0000 C   0  0  0  0  0  0  0  0  0  0  0  0
    6.4289  -10.4116    0.0000 C   0  0  0  0  0  0  0  0  0  0  0  0
    5.4999  -10.8532    0.0000 F   0  0  0  0  0  0  0  0  0  0  0  0
    5.0000  -11.2365    0.0000 F   0  0  0  0  0  0  0  0  0  0  0  0
    5.7124  -12.4738    0.0000 F   0  0  0  0  0  0  0  0  0  0  0  0
    8.5661   -7.5205    0.0000 C   0  0  0  0  0  0  0  0  0  0  0  0
    7.1413   -9.9950    0.0000 C   0  0  0  0  0  0  0  0  0  0  0  0
    7.8579  -11.2365    0.0000 C   0  0  0  0  0  0  0  0  0  0  0  0
    9.2785   -7.9329    0.0000 C   0  0  0  0  0  0  0  0  0  0  0  0
    7.8495   -7.9329    0.0000 C   0  0  0  0  0  0  0  0  0  0  0  0
    9.2868  -11.2240    0.0000 C   0  0  0  0  0  0  0  0  0  0  0  0
   11.2240   -8.4411    0.0000 C   0  0  0  0  0  0  0  0  0  0  0  0
   11.7072   -5.2958    0.0000 C   0  0  0  0  0  0  0  0  0  0  0  0
   10.3074   -5.0000    0.0000 C   0  0  0  0  0  0  0  0  0  0  0  0
   11.6572   -5.9249    0.0000 C   0  0  0  0  0  0  0  0  0  0  0  0
    9.9908   -9.9825    0.0000 C   0  0  0  0  0  0  0  0  0  0  0  0
   10.7157  -11.2157    0.0000 C   0  0  0  0  0  0  0  0  0  0  0  0
   10.7074  -10.3866    0.0000 C   0  0  0  0  0  0  0  0  0  0  0  0
  2  1  1  0  0  0  0
  3  2  1  0  0  0  0
  4  1  1  0  0  0  0
  5  1  2  0  0  0  0
  6 12  1  0  0  0  0
  7 17  1  0  0  0  0
  8  5  1  0  0  0  0
  9  4  1  0  0  0  0
 10  2  1  0  0  0  0
 11  7  1  0  0  0  0
 12 20  2  0  0  0  0
 13 11  1  0  0  0  0
 14  4  2  0  0  0  0
 15 11  1  0  0  0  0
 16 27  1  0  0  0  0
 17 28  1  0  0  0  0
 18 29  1  0  0  0  0
 19 26  2  0  0  0  0
 20 25  1  0  0  0  0
 21  6  1  0  0  0  0
 22  6  1  0  0  0  0
 23  6  1  0  0  0  0
 24  9  1  0  0  0  0
 25 15  2  0  0  0  0
 26 15  1  0  0  0  0
 27 24  1  0  0  0  0
 28 24  1  0  0  0  0
 29 13  2  0  0  0  0
 30  8  1  0  0  0  0
 31 10  1  0  0  0  0
 32 10  1  0  0  0  0
 33 10  1  0  0  0  0
 34 13  1  0  0  0  0
 35 36  1  0  0  0  0
 36 34  2  0  0  0  0
  3  8  2  0  0  0  0
 16  7  1  0  0  0  0
 19 12  1  0  0  0  0
 35 18  2  0  0  0  0
M  END
> <Molecule Name>
DNDI1599450

> <CDD Number>
CDD-1535794

> <IC50_uM>
0.0135 (n=1)

$$$$

SketchEl molfile

 33 36  0  0  0  0  0  0  0  0999 V2000
    9.9958   -6.2375    0.0000 C   0  0  0  0  0  0  0  0  0  0  0  0
   10.7500   -5.9000    0.0000 C   0  0  0  0  0  0  0  0  0  0  0  0
   11.3041   -6.5125    0.0000 N   0  0  0  0  0  0  0  0  0  0  0  0
    9.2792   -5.8250    0.0000 C   0  0  0  0  0  0  0  0  0  0  0  0
   10.0833   -7.0583    0.0000 S   0  0  0  0  0  0  0  0  0  0  0  0
   10.8916   -7.2291    0.0000 C   0  0  0  0  0  0  0  0  0  0  0  0
    5.7125  -11.1916    0.0000 C   0  0  0  0  0  0  0  0  0  0  0  0
    8.5667   -8.7083    0.0000 N   0  0  0  0  0  0  0  0  0  0  0  0
    8.5667   -6.2375    0.0000 N   0  0  0  0  0  0  0  0  0  0  0  0
    8.5708   -9.5333    0.0000 C   0  0  0  0  0  0  0  0  0  0  0  0
    6.4292  -10.7791    0.0000 C   0  0  0  0  0  0  0  0  0  0  0  0
    9.2875   -9.9416    0.0000 C   0  0  0  0  0  0  0  0  0  0  0  0
    9.2792   -5.0000    0.0000 O   0  0  0  0  0  0  0  0  0  0  0  0
    7.8583   -9.9499    0.0000 C   0  0  0  0  0  0  0  0  0  0  0  0
    7.8500   -8.3041    0.0000 C   0  0  0  0  0  0  0  0  0  0  0  0
    9.2792   -8.2958    0.0000 C   0  0  0  0  0  0  0  0  0  0  0  0
   10.0000  -11.1749    0.0000 N   0  0  0  0  0  0  0  0  0  0  0  0
    6.4292   -9.9541    0.0000 C   0  0  0  0  0  0  0  0  0  0  0  0
    7.1417  -11.1916    0.0000 C   0  0  0  0  0  0  0  0  0  0  0  0
    5.7125  -12.0166    0.0000 F   0  0  0  0  0  0  0  0  0  0  0  0
    5.5000  -10.3958    0.0000 F   0  0  0  0  0  0  0  0  0  0  0  0
    5.0000  -10.7791    0.0000 F   0  0  0  0  0  0  0  0  0  0  0  0
    7.8583  -10.7791    0.0000 C   0  0  0  0  0  0  0  0  0  0  0  0
    8.5667   -7.0625    0.0000 C   0  0  0  0  0  0  0  0  0  0  0  0
    7.1417   -9.5374    0.0000 C   0  0  0  0  0  0  0  0  0  0  0  0
    7.8500   -7.4750    0.0000 C   0  0  0  0  0  0  0  0  0  0  0  0
    9.2792   -7.4750    0.0000 C   0  0  0  0  0  0  0  0  0  0  0  0
   10.9208   -5.0958    0.0000 C   0  0  0  0  0  0  0  0  0  0  0  0
    9.2875  -10.7666    0.0000 C   0  0  0  0  0  0  0  0  0  0  0  0
   11.2250   -7.9833    0.0000 C   0  0  0  0  0  0  0  0  0  0  0  0
    9.9916   -9.5249    0.0000 C   0  0  0  0  0  0  0  0  0  0  0  0
   10.7166  -10.7583    0.0000 C   0  0  0  0  0  0  0  0  0  0  0  0
   10.7083   -9.9291    0.0000 C   0  0  0  0  0  0  0  0  0  0  0  0
  2  1  2  0  0  0  0
  3  2  1  0  0  0  0
  4  1  1  0  0  0  0
  5  1  1  0  0  0  0
  6  5  1  0  0  0  0
  7 11  1  0  0  0  0
  8 15  1  0  0  0  0
  9  4  1  0  0  0  0
 10  8  1  0  0  0  0
 11 18  2  0  0  0  0
 12 10  1  0  0  0  0
 13  4  2  0  0  0  0
 14 10  1  0  0  0  0
 15 26  1  0  0  0  0
 16 27  1  0  0  0  0
 17 29  1  0  0  0  0
 18 25  1  0  0  0  0
 19 23  2  0  0  0  0
 20  7  1  0  0  0  0
 21  7  1  0  0  0  0
 22  7  1  0  0  0  0
 23 14  1  0  0  0  0
 24  9  1  0  0  0  0
 25 14  2  0  0  0  0
 26 24  1  0  0  0  0
 27 24  1  0  0  0  0
 28  2  1  0  0  0  0
 29 12  2  0  0  0  0
 30  6  1  0  0  0  0
 31 12  1  0  0  0  0
 32 33  1  0  0  0  0
 33 31  2  0  0  0  0
  3  6  2  0  0  0  0
 16  8  1  0  0  0  0
 19 11  1  0  0  0  0
 32 17  2  0  0  0  0
M  END
> <Molecule Name>
DNDI1599451

> <CDD Number>
CDD-1535795

> <IC50_uM>
0.018 (n=1)

$$$$

SketchEl molfile

 32 35  0  0  0  0  0  0  0  0999 V2000
    9.9957   -6.2374    0.0000 C   0  0  0  0  0  0  0  0  0  0  0  0
    9.2791   -5.8250    0.0000 C   0  0  0  0  0  0  0  0  0  0  0  0
    5.7125  -11.1915    0.0000 C   0  0  0  0  0  0  0  0  0  0  0  0
    8.5666   -8.7082    0.0000 N   0  0  0  0  0  0  0  0  0  0  0  0
   11.3040   -6.5124    0.0000 N   0  0  0  0  0  0  0  0  0  0  0  0
   10.7499   -5.9000    0.0000 C   0  0  0  0  0  0  0  0  0  0  0  0
    8.5666   -6.2374    0.0000 N   0  0  0  0  0  0  0  0  0  0  0  0
   10.8916   -7.2291    0.0000 O   0  0  0  0  0  0  0  0  0  0  0  0
    8.5708   -9.5332    0.0000 C   0  0  0  0  0  0  0  0  0  0  0  0
   10.0832   -7.0583    0.0000 C   0  0  0  0  0  0  0  0  0  0  0  0
    6.4291  -10.7790    0.0000 C   0  0  0  0  0  0  0  0  0  0  0  0
    9.2874   -9.9415    0.0000 C   0  0  0  0  0  0  0  0  0  0  0  0
    9.2791   -5.0000    0.0000 O   0  0  0  0  0  0  0  0  0  0  0  0
    7.8583   -9.9499    0.0000 C   0  0  0  0  0  0  0  0  0  0  0  0
    7.8499   -8.3041    0.0000 C   0  0  0  0  0  0  0  0  0  0  0  0
    9.2791   -8.2957    0.0000 C   0  0  0  0  0  0  0  0  0  0  0  0
    9.9999  -11.1748    0.0000 N   0  0  0  0  0  0  0  0  0  0  0  0
    6.4291   -9.9540    0.0000 C   0  0  0  0  0  0  0  0  0  0  0  0
    7.1416  -11.1915    0.0000 C   0  0  0  0  0  0  0  0  0  0  0  0
    5.7125  -12.0165    0.0000 F   0  0  0  0  0  0  0  0  0  0  0  0
    5.5000  -10.3957    0.0000 F   0  0  0  0  0  0  0  0  0  0  0  0
    5.0000  -10.7790    0.0000 F   0  0  0  0  0  0  0  0  0  0  0  0
    7.8583  -10.7790    0.0000 C   0  0  0  0  0  0  0  0  0  0  0  0
    8.5666   -7.0624    0.0000 C   0  0  0  0  0  0  0  0  0  0  0  0
    7.1416   -9.5374    0.0000 C   0  0  0  0  0  0  0  0  0  0  0  0
    7.8499   -7.4749    0.0000 C   0  0  0  0  0  0  0  0  0  0  0  0
    9.2791   -7.4749    0.0000 C   0  0  0  0  0  0  0  0  0  0  0  0
    9.2874  -10.7665    0.0000 C   0  0  0  0  0  0  0  0  0  0  0  0
   10.9207   -5.0958    0.0000 C   0  0  0  0  0  0  0  0  0  0  0  0
    9.9916   -9.5249    0.0000 C   0  0  0  0  0  0  0  0  0  0  0  0
   10.7166  -10.7582    0.0000 C   0  0  0  0  0  0  0  0  0  0  0  0
   10.7082   -9.9290    0.0000 C   0  0  0  0  0  0  0  0  0  0  0  0
  2  1  1  0  0  0  0
  3 11  1  0  0  0  0
  4 15  1  0  0  0  0
  5  6  2  0  0  0  0
  6  1  1  0  0  0  0
  7  2  1  0  0  0  0
  8 10  1  0  0  0  0
  9  4  1  0  0  0  0
 10  1  2  0  0  0  0
 11 18  2  0  0  0  0
 12  9  1  0  0  0  0
 13  2  2  0  0  0  0
 14  9  1  0  0  0  0
 15 26  1  0  0  0  0
 16 27  1  0  0  0  0
 17 28  1  0  0  0  0
 18 25  1  0  0  0  0
 19 23  2  0  0  0  0
 20  3  1  0  0  0  0
 21  3  1  0  0  0  0
 22  3  1  0  0  0  0
 23 14  1  0  0  0  0
 24  7  1  0  0  0  0
 25 14  2  0  0  0  0
 26 24  1  0  0  0  0
 27 24  1  0  0  0  0
 28 12  2  0  0  0  0
 29  6  1  0  0  0  0
 30 12  1  0  0  0  0
 31 32  1  0  0  0  0
 32 30  2  0  0  0  0
  5  8  1  0  0  0  0
 16  4  1  0  0  0  0
 19 11  1  0  0  0  0
 31 17  2  0  0  0  0
M  END
> <Molecule Name>
DNDI1599452

> <CDD Number>
CDD-1535796

> <IC50_uM>
0.0155 (n=1)

$$$$

SketchEl molfile

 33 36  0  0  0  0  0  0  0  0999 V2000
    9.9960   -6.2376    0.0000 C   0  0  0  0  0  0  0  0  0  0  0  0
    9.2793   -5.8251    0.0000 C   0  0  0  0  0  0  0  0  0  0  0  0
   11.3044   -6.5126    0.0000 N   0  0  0  0  0  0  0  0  0  0  0  0
    5.7125  -11.1920    0.0000 C   0  0  0  0  0  0  0  0  0  0  0  0
   10.8919   -7.2293    0.0000 O   0  0  0  0  0  0  0  0  0  0  0  0
   10.0835   -7.0585    0.0000 C   0  0  0  0  0  0  0  0  0  0  0  0
    8.5668   -8.7085    0.0000 N   0  0  0  0  0  0  0  0  0  0  0  0
   10.7502   -5.9001    0.0000 C   0  0  0  0  0  0  0  0  0  0  0  0
    8.5668   -6.2376    0.0000 N   0  0  0  0  0  0  0  0  0  0  0  0
    8.5710   -9.5336    0.0000 C   0  0  0  0  0  0  0  0  0  0  0  0
    6.4292  -10.7794    0.0000 C   0  0  0  0  0  0  0  0  0  0  0  0
    9.2793   -5.0000    0.0000 O   0  0  0  0  0  0  0  0  0  0  0  0
    9.2877   -9.9419    0.0000 C   0  0  0  0  0  0  0  0  0  0  0  0
    7.8585   -9.9502    0.0000 C   0  0  0  0  0  0  0  0  0  0  0  0
    7.8501   -8.3043    0.0000 C   0  0  0  0  0  0  0  0  0  0  0  0
    9.2793   -8.2960    0.0000 C   0  0  0  0  0  0  0  0  0  0  0  0
   10.0002  -11.1753    0.0000 N   0  0  0  0  0  0  0  0  0  0  0  0
    6.4292   -9.9544    0.0000 C   0  0  0  0  0  0  0  0  0  0  0  0
    7.1418  -11.1920    0.0000 C   0  0  0  0  0  0  0  0  0  0  0  0
    8.5668   -7.0626    0.0000 C   0  0  0  0  0  0  0  0  0  0  0  0
    5.7125  -12.0170    0.0000 F   0  0  0  0  0  0  0  0  0  0  0  0
    5.5000  -10.3961    0.0000 F   0  0  0  0  0  0  0  0  0  0  0  0
    5.0000  -10.7794    0.0000 F   0  0  0  0  0  0  0  0  0  0  0  0
    7.1418   -9.5377    0.0000 C   0  0  0  0  0  0  0  0  0  0  0  0
    7.8585  -10.7794    0.0000 C   0  0  0  0  0  0  0  0  0  0  0  0
    7.8501   -7.4751    0.0000 C   0  0  0  0  0  0  0  0  0  0  0  0
    9.2793   -7.4751    0.0000 C   0  0  0  0  0  0  0  0  0  0  0  0
    9.2877  -10.7669    0.0000 C   0  0  0  0  0  0  0  0  0  0  0  0
    9.4710   -7.6085    0.0000 C   0  0  0  0  0  0  0  0  0  0  0  0
   10.9211   -5.0959    0.0000 C   0  0  0  0  0  0  0  0  0  0  0  0
    9.9919   -9.5252    0.0000 C   0  0  0  0  0  0  0  0  0  0  0  0
   10.7169  -10.7586    0.0000 C   0  0  0  0  0  0  0  0  0  0  0  0
   10.7086   -9.9294    0.0000 C   0  0  0  0  0  0  0  0  0  0  0  0
  2  1  1  0  0  0  0
  3  8  2  0  0  0  0
  4 11  1  0  0  0  0
  5  6  1  0  0  0  0
  6  1  2  0  0  0  0
  7 15  1  0  0  0  0
  8  1  1  0  0  0  0
  9  2  1  0  0  0  0
 10  7  1  0  0  0  0
 11 18  2  0  0  0  0
 12  2  2  0  0  0  0
 13 10  1  0  0  0  0
 14 10  1  0  0  0  0
 15 26  1  0  0  0  0
 16 27  1  0  0  0  0
 17 28  1  0  0  0  0
 18 24  1  0  0  0  0
 19 25  2  0  0  0  0
 20  9  1  0  0  0  0
 21  4  1  0  0  0  0
 22  4  1  0  0  0  0
 23  4  1  0  0  0  0
 24 14  2  0  0  0  0
 25 14  1  0  0  0  0
 26 20  1  0  0  0  0
 27 20  1  0  0  0  0
 28 13  2  0  0  0  0
 29  6  1  0  0  0  0
 30  8  1  0  0  0  0
 31 13  1  0  0  0  0
 32 33  1  0  0  0  0
 33 31  2  0  0  0  0
  3  5  1  0  0  0  0
 16  7  1  0  0  0  0
 19 11  1  0  0  0  0
 32 17  2  0  0  0  0
M  END
> <Molecule Name>
DNDI1599453

> <CDD Number>
CDD-1535797

> <IC50_uM>
0.009 (n=1)

$$$$

SketchEl molfile

 33 36  0  0  0  0  0  0  0  0999 V2000
    9.9958   -6.2375    0.0000 C   0  0  0  0  0  0  0  0  0  0  0  0
   10.7500   -5.9000    0.0000 N   0  0  0  0  0  0  0  0  0  0  0  0
   11.3041   -6.5125    0.0000 N   0  0  0  0  0  0  0  0  0  0  0  0
    9.2792   -5.8250    0.0000 C   0  0  0  0  0  0  0  0  0  0  0  0
   10.0833   -7.0583    0.0000 C   0  0  0  0  0  0  0  0  0  0  0  0
    5.7125  -11.1916    0.0000 C   0  0  0  0  0  0  0  0  0  0  0  0
    8.5667   -8.7083    0.0000 N   0  0  0  0  0  0  0  0  0  0  0  0
   10.8916   -7.2291    0.0000 C   0  0  0  0  0  0  0  0  0  0  0  0
    8.5667   -6.2375    0.0000 N   0  0  0  0  0  0  0  0  0  0  0  0
    8.5708   -9.5333    0.0000 C   0  0  0  0  0  0  0  0  0  0  0  0
    6.4292  -10.7791    0.0000 C   0  0  0  0  0  0  0  0  0  0  0  0
    9.2875   -9.9416    0.0000 C   0  0  0  0  0  0  0  0  0  0  0  0
    9.2792   -5.0000    0.0000 O   0  0  0  0  0  0  0  0  0  0  0  0
    7.8583   -9.9499    0.0000 C   0  0  0  0  0  0  0  0  0  0  0  0
    7.8500   -8.3041    0.0000 C   0  0  0  0  0  0  0  0  0  0  0  0
    9.2792   -8.2958    0.0000 C   0  0  0  0  0  0  0  0  0  0  0  0
   10.0000  -11.1749    0.0000 N   0  0  0  0  0  0  0  0  0  0  0  0
    6.4292   -9.9541    0.0000 C   0  0  0  0  0  0  0  0  0  0  0  0
    7.1417  -11.1916    0.0000 C   0  0  0  0  0  0  0  0  0  0  0  0
    5.7125  -12.0166    0.0000 F   0  0  0  0  0  0  0  0  0  0  0  0
    5.5000  -10.3958    0.0000 F   0  0  0  0  0  0  0  0  0  0  0  0
    5.0000  -10.7791    0.0000 F   0  0  0  0  0  0  0  0  0  0  0  0
    7.8583  -10.7791    0.0000 C   0  0  0  0  0  0  0  0  0  0  0  0
    8.5667   -7.0625    0.0000 C   0  0  0  0  0  0  0  0  0  0  0  0
    7.1417   -9.5374    0.0000 C   0  0  0  0  0  0  0  0  0  0  0  0
    7.8500   -7.4750    0.0000 C   0  0  0  0  0  0  0  0  0  0  0  0
    9.2792   -7.4750    0.0000 C   0  0  0  0  0  0  0  0  0  0  0  0
   10.9208   -5.0958    0.0000 C   0  0  0  0  0  0  0  0  0  0  0  0
    9.2875  -10.7666    0.0000 C   0  0  0  0  0  0  0  0  0  0  0  0
   11.2250   -7.9833    0.0000 C   0  0  0  0  0  0  0  0  0  0  0  0
    9.9916   -9.5249    0.0000 C   0  0  0  0  0  0  0  0  0  0  0  0
   10.7166  -10.7583    0.0000 C   0  0  0  0  0  0  0  0  0  0  0  0
   10.7083   -9.9291    0.0000 C   0  0  0  0  0  0  0  0  0  0  0  0
  2  1  1  0  0  0  0
  3  2  1  0  0  0  0
  4  1  1  0  0  0  0
  5  1  2  0  0  0  0
  6 11  1  0  0  0  0
  7 15  1  0  0  0  0
  8  5  1  0  0  0  0
  9  4  1  0  0  0  0
 10  7  1  0  0  0  0
 11 18  2  0  0  0  0
 12 10  1  0  0  0  0
 13  4  2  0  0  0  0
 14 10  1  0  0  0  0
 15 26  1  0  0  0  0
 16 27  1  0  0  0  0
 17 29  1  0  0  0  0
 18 25  1  0  0  0  0
 19 23  2  0  0  0  0
 20  6  1  0  0  0  0
 21  6  1  0  0  0  0
 22  6  1  0  0  0  0
 23 14  1  0  0  0  0
 24  9  1  0  0  0  0
 25 14  2  0  0  0  0
 26 24  1  0  0  0  0
 27 24  1  0  0  0  0
 28  2  1  0  0  0  0
 29 12  2  0  0  0  0
 30  8  1  0  0  0  0
 31 12  1  0  0  0  0
 32 33  1  0  0  0  0
 33 31  2  0  0  0  0
  3  8  2  0  0  0  0
 16  7  1  0  0  0  0
 19 11  1  0  0  0  0
 32 17  2  0  0  0  0
M  END
> <Molecule Name>
DNDI1599454

> <CDD Number>
CDD-1535798

> <IC50_uM>
0.012 (n=1)

$$$$

SketchEl molfile

 36 39  0  0  0  0  0  0  0  0999 V2000
   10.7490   -6.3582    0.0000 C   0  0  0  0  0  0  0  0  0  0  0  0
    9.9950   -6.6956    0.0000 C   0  0  0  0  0  0  0  0  0  0  0  0
   11.3031   -6.9706    0.0000 N   0  0  0  0  0  0  0  0  0  0  0  0
    9.2785   -6.2832    0.0000 C   0  0  0  0  0  0  0  0  0  0  0  0
   10.9198   -5.5541    0.0000 C   0  0  0  0  0  0  0  0  0  0  0  0
   10.8907   -7.6871    0.0000 N   0  0  0  0  0  0  0  0  0  0  0  0
   10.0825   -7.5163    0.0000 C   0  0  0  0  0  0  0  0  0  0  0  0
    5.7124  -11.6489    0.0000 C   0  0  0  0  0  0  0  0  0  0  0  0
    8.5661   -9.1660    0.0000 N   0  0  0  0  0  0  0  0  0  0  0  0
    8.5661   -6.6956    0.0000 N   0  0  0  0  0  0  0  0  0  0  0  0
    8.5702   -9.9909    0.0000 C   0  0  0  0  0  0  0  0  0  0  0  0
    6.4289  -11.2365    0.0000 C   0  0  0  0  0  0  0  0  0  0  0  0
    9.2868  -10.3991    0.0000 C   0  0  0  0  0  0  0  0  0  0  0  0
    9.2785   -5.4583    0.0000 O   0  0  0  0  0  0  0  0  0  0  0  0
    7.8579  -10.4075    0.0000 C   0  0  0  0  0  0  0  0  0  0  0  0
    9.2785   -8.7536    0.0000 C   0  0  0  0  0  0  0  0  0  0  0  0
    7.8495   -8.7619    0.0000 C   0  0  0  0  0  0  0  0  0  0  0  0
    9.9992  -11.6323    0.0000 N   0  0  0  0  0  0  0  0  0  0  0  0
   11.7072   -5.2958    0.0000 F   0  0  0  0  0  0  0  0  0  0  0  0
   10.3074   -5.0000    0.0000 F   0  0  0  0  0  0  0  0  0  0  0  0
   11.6572   -5.9249    0.0000 F   0  0  0  0  0  0  0  0  0  0  0  0
    6.4289  -10.4116    0.0000 C   0  0  0  0  0  0  0  0  0  0  0  0
    7.1413  -11.6489    0.0000 C   0  0  0  0  0  0  0  0  0  0  0  0
    5.4999  -10.8532    0.0000 F   0  0  0  0  0  0  0  0  0  0  0  0
    5.0000  -11.2365    0.0000 F   0  0  0  0  0  0  0  0  0  0  0  0
    5.7124  -12.4738    0.0000 F   0  0  0  0  0  0  0  0  0  0  0  0
    8.5661   -7.5205    0.0000 C   0  0  0  0  0  0  0  0  0  0  0  0
    7.1413   -9.9950    0.0000 C   0  0  0  0  0  0  0  0  0  0  0  0
    7.8579  -11.2365    0.0000 C   0  0  0  0  0  0  0  0  0  0  0  0
    7.8495   -7.9329    0.0000 C   0  0  0  0  0  0  0  0  0  0  0  0
    9.2785   -7.9329    0.0000 C   0  0  0  0  0  0  0  0  0  0  0  0
    9.2868  -11.2240    0.0000 C   0  0  0  0  0  0  0  0  0  0  0  0
   11.2240   -8.4411    0.0000 C   0  0  0  0  0  0  0  0  0  0  0  0
    9.9908   -9.9825    0.0000 C   0  0  0  0  0  0  0  0  0  0  0  0
   10.7157  -11.2157    0.0000 C   0  0  0  0  0  0  0  0  0  0  0  0
   10.7074  -10.3866    0.0000 C   0  0  0  0  0  0  0  0  0  0  0  0
  2  1  1  0  0  0  0
  3  1  2  0  0  0  0
  4  2  1  0  0  0  0
  5  1  1  0  0  0  0
  6  3  1  0  0  0  0
  7  2  2  0  0  0  0
  8 12  1  0  0  0  0
  9 17  1  0  0  0  0
 10  4  1  0  0  0  0
 11  9  1  0  0  0  0
 12 22  2  0  0  0  0
 13 11  1  0  0  0  0
 14  4  2  0  0  0  0
 15 11  1  0  0  0  0
 16 31  1  0  0  0  0
 17 30  1  0  0  0  0
 18 32  1  0  0  0  0
 19  5  1  0  0  0  0
 20  5  1  0  0  0  0
 21  5  1  0  0  0  0
 22 28  1  0  0  0  0
 23 29  2  0  0  0  0
 24  8  1  0  0  0  0
 25  8  1  0  0  0  0
 26  8  1  0  0  0  0
 27 10  1  0  0  0  0
 28 15  2  0  0  0  0
 29 15  1  0  0  0  0
 30 27  1  0  0  0  0
 31 27  1  0  0  0  0
 32 13  2  0  0  0  0
 33  6  1  0  0  0  0
 34 13  1  0  0  0  0
 35 36  1  0  0  0  0
 36 34  2  0  0  0  0
  6  7  1  0  0  0  0
 16  9  1  0  0  0  0
 23 12  1  0  0  0  0
 35 18  2  0  0  0  0
M  END
> <Molecule Name>
DNDI1599455

> <CDD Number>
CDD-1535799

> <IC50_uM>
0.016 (n=1)

$$$$

SketchEl molfile

 34 37  0  0  0  0  0  0  0  0999 V2000
    9.2788   -7.4748    0.0000 C   0  0  0  0  0  0  0  0  0  0  0  0
    9.2788   -6.6499    0.0000 C   0  0  0  0  0  0  0  0  0  0  0  0
    5.7124  -12.8411    0.0000 C   0  0  0  0  0  0  0  0  0  0  0  0
    8.5664  -10.3579    0.0000 N   0  0  0  0  0  0  0  0  0  0  0  0
    8.5664   -7.8873    0.0000 N   0  0  0  0  0  0  0  0  0  0  0  0
    8.5705  -11.1829    0.0000 C   0  0  0  0  0  0  0  0  0  0  0  0
    6.4291  -12.4286    0.0000 C   0  0  0  0  0  0  0  0  0  0  0  0
    9.9954   -7.8873    0.0000 O   0  0  0  0  0  0  0  0  0  0  0  0
    9.9954   -6.2374    0.0000 C   0  0  0  0  0  0  0  0  0  0  0  0
    8.5664   -6.2416    0.0000 C   0  0  0  0  0  0  0  0  0  0  0  0
    9.2872  -11.5912    0.0000 C   0  0  0  0  0  0  0  0  0  0  0  0
    7.8581  -11.5995    0.0000 C   0  0  0  0  0  0  0  0  0  0  0  0
    7.8498   -9.9538    0.0000 C   0  0  0  0  0  0  0  0  0  0  0  0
    9.2788   -9.9455    0.0000 C   0  0  0  0  0  0  0  0  0  0  0  0
    9.9996  -12.8244    0.0000 N   0  0  0  0  0  0  0  0  0  0  0  0
    6.4291  -11.5995    0.0000 C   0  0  0  0  0  0  0  0  0  0  0  0
    7.1415  -12.8411    0.0000 C   0  0  0  0  0  0  0  0  0  0  0  0
    8.5664   -8.7122    0.0000 C   0  0  0  0  0  0  0  0  0  0  0  0
    5.0000  -12.4286    0.0000 F   0  0  0  0  0  0  0  0  0  0  0  0
    5.7124  -13.6660    0.0000 F   0  0  0  0  0  0  0  0  0  0  0  0
    5.5000  -12.0453    0.0000 F   0  0  0  0  0  0  0  0  0  0  0  0
    7.1415  -11.1870    0.0000 C   0  0  0  0  0  0  0  0  0  0  0  0
    7.8581  -12.4286    0.0000 C   0  0  0  0  0  0  0  0  0  0  0  0
    7.8498   -9.1247    0.0000 C   0  0  0  0  0  0  0  0  0  0  0  0
    9.2788   -9.1247    0.0000 C   0  0  0  0  0  0  0  0  0  0  0  0
    7.8539   -6.6582    0.0000 F   0  0  0  0  0  0  0  0  0  0  0  0
   10.7079   -6.6541    0.0000 F   0  0  0  0  0  0  0  0  0  0  0  0
    9.2872  -12.4161    0.0000 C   0  0  0  0  0  0  0  0  0  0  0  0
    9.2788   -5.0000    0.0000 C   0  0  0  0  0  0  0  0  0  0  0  0
    8.5622   -5.4167    0.0000 C   0  0  0  0  0  0  0  0  0  0  0  0
    9.9954   -5.4167    0.0000 C   0  0  0  0  0  0  0  0  0  0  0  0
    9.9913  -11.1745    0.0000 C   0  0  0  0  0  0  0  0  0  0  0  0
   10.7162  -12.4078    0.0000 C   0  0  0  0  0  0  0  0  0  0  0  0
   10.7079  -11.5787    0.0000 C   0  0  0  0  0  0  0  0  0  0  0  0
  2  1  1  0  0  0  0
  3  7  1  0  0  0  0
  4 13  1  0  0  0  0
  5  1  1  0  0  0  0
  6  4  1  0  0  0  0
  7 16  2  0  0  0  0
  8  1  2  0  0  0  0
  9  2  2  0  0  0  0
 10  2  1  0  0  0  0
 11  6  1  0  0  0  0
 12  6  1  0  0  0  0
 13 24  1  0  0  0  0
 14 25  1  0  0  0  0
 15 28  1  0  0  0  0
 16 22  1  0  0  0  0
 17 23  2  0  0  0  0
 18  5  1  0  0  0  0
 19  3  1  0  0  0  0
 20  3  1  0  0  0  0
 21  3  1  0  0  0  0
 22 12  2  0  0  0  0
 23 12  1  0  0  0  0
 24 18  1  0  0  0  0
 25 18  1  0  0  0  0
 26 10  1  0  0  0  0
 27  9  1  0  0  0  0
 28 11  2  0  0  0  0
 29 30  1  0  0  0  0
 30 10  2  0  0  0  0
 31  9  1  0  0  0  0
 32 11  1  0  0  0  0
 33 34  1  0  0  0  0
 34 32  2  0  0  0  0
 29 31  2  0  0  0  0
 14  4  1  0  0  0  0
 17  7  1  0  0  0  0
 33 15  2  0  0  0  0
M  END
> <Molecule Name>
DNDI1599456

> <CDD Number>
CDD-1535800

> <IC50_uM>
0.011842719282327 ร/รท 1.59842670971169 (n=2)

$$$$

SketchEl molfile

 36 39  0  0  0  0  0  0  0  0999 V2000
    9.2789   -7.4749    0.0000 C   0  0  0  0  0  0  0  0  0  0  0  0
    7.8540   -6.6582    0.0000 C   0  0  0  0  0  0  0  0  0  0  0  0
    5.7125  -12.8412    0.0000 C   0  0  0  0  0  0  0  0  0  0  0  0
    8.5665   -6.2416    0.0000 C   0  0  0  0  0  0  0  0  0  0  0  0
    9.2789   -6.6499    0.0000 C   0  0  0  0  0  0  0  0  0  0  0  0
    8.5665  -10.3580    0.0000 N   0  0  0  0  0  0  0  0  0  0  0  0
    8.5665   -7.8873    0.0000 N   0  0  0  0  0  0  0  0  0  0  0  0
    8.5706  -11.1830    0.0000 C   0  0  0  0  0  0  0  0  0  0  0  0
    6.4291  -12.4288    0.0000 C   0  0  0  0  0  0  0  0  0  0  0  0
    9.2873  -11.5913    0.0000 C   0  0  0  0  0  0  0  0  0  0  0  0
    9.9956   -7.8873    0.0000 O   0  0  0  0  0  0  0  0  0  0  0  0
    7.8582  -11.5996    0.0000 C   0  0  0  0  0  0  0  0  0  0  0  0
    7.8498   -9.9539    0.0000 C   0  0  0  0  0  0  0  0  0  0  0  0
    9.2789   -9.9456    0.0000 C   0  0  0  0  0  0  0  0  0  0  0  0
    9.9997  -12.8246    0.0000 N   0  0  0  0  0  0  0  0  0  0  0  0
    6.4291  -11.5996    0.0000 C   0  0  0  0  0  0  0  0  0  0  0  0
    7.1416  -12.8412    0.0000 C   0  0  0  0  0  0  0  0  0  0  0  0
    7.1374   -6.2458    0.0000 F   0  0  0  0  0  0  0  0  0  0  0  0
    7.8582   -7.4832    0.0000 F   0  0  0  0  0  0  0  0  0  0  0  0
    7.6374   -5.8624    0.0000 F   0  0  0  0  0  0  0  0  0  0  0  0
    5.0000  -12.4288    0.0000 F   0  0  0  0  0  0  0  0  0  0  0  0
    5.7125  -13.6662    0.0000 F   0  0  0  0  0  0  0  0  0  0  0  0
    5.5000  -12.0455    0.0000 F   0  0  0  0  0  0  0  0  0  0  0  0
    8.5665   -8.7123    0.0000 C   0  0  0  0  0  0  0  0  0  0  0  0
    7.1416  -11.1872    0.0000 C   0  0  0  0  0  0  0  0  0  0  0  0
    7.8582  -12.4288    0.0000 C   0  0  0  0  0  0  0  0  0  0  0  0
    9.2789   -9.1248    0.0000 C   0  0  0  0  0  0  0  0  0  0  0  0
    7.8498   -9.1248    0.0000 C   0  0  0  0  0  0  0  0  0  0  0  0
    9.2873  -12.4163    0.0000 C   0  0  0  0  0  0  0  0  0  0  0  0
    8.5623   -5.4208    0.0000 C   0  0  0  0  0  0  0  0  0  0  0  0
    9.9956   -6.2374    0.0000 C   0  0  0  0  0  0  0  0  0  0  0  0
    9.9914  -11.1747    0.0000 C   0  0  0  0  0  0  0  0  0  0  0  0
   10.7164  -12.4079    0.0000 C   0  0  0  0  0  0  0  0  0  0  0  0
   10.7080  -11.5788    0.0000 C   0  0  0  0  0  0  0  0  0  0  0  0
    9.9956   -5.4166    0.0000 C   0  0  0  0  0  0  0  0  0  0  0  0
    9.2789   -5.0000    0.0000 C   0  0  0  0  0  0  0  0  0  0  0  0
  2  4  1  0  0  0  0
  3  9  1  0  0  0  0
  4  5  1  0  0  0  0
  5  1  1  0  0  0  0
  6 13  1  0  0  0  0
  7  1  1  0  0  0  0
  8  6  1  0  0  0  0
  9 16  2  0  0  0  0
 10  8  1  0  0  0  0
 11  1  2  0  0  0  0
 12  8  1  0  0  0  0
 13 28  1  0  0  0  0
 14 27  1  0  0  0  0
 15 29  1  0  0  0  0
 16 25  1  0  0  0  0
 17 26  2  0  0  0  0
 18  2  1  0  0  0  0
 19  2  1  0  0  0  0
 20  2  1  0  0  0  0
 21  3  1  0  0  0  0
 22  3  1  0  0  0  0
 23  3  1  0  0  0  0
 24  7  1  0  0  0  0
 25 12  2  0  0  0  0
 26 12  1  0  0  0  0
 27 24  1  0  0  0  0
 28 24  1  0  0  0  0
 29 10  2  0  0  0  0
 30  4  2  0  0  0  0
 31  5  2  0  0  0  0
 32 10  1  0  0  0  0
 33 34  1  0  0  0  0
 34 32  2  0  0  0  0
 35 31  1  0  0  0  0
 36 30  1  0  0  0  0
 36 35  2  0  0  0  0
 14  6  1  0  0  0  0
 17  9  1  0  0  0  0
 33 15  2  0  0  0  0
M  END
> <Molecule Name>
DNDI1599457

> <CDD Number>
CDD-1535801

> <IC50_uM>
0.006 (n=1)

$$$$

SketchEl molfile

 31 34  0  0  0  0  0  0  0  0999 V2000
    7.1461   -9.1298    0.0000 C   0  0  0  0  0  0  0  0  0  0  0  0
    7.8587   -8.7130    0.0000 C   0  0  0  0  0  0  0  0  0  0  0  0
    9.9923   -6.6461    0.0000 N   0  0  0  0  0  0  0  0  0  0  0  0
    6.4294   -8.7172    0.0000 C   0  0  0  0  0  0  0  0  0  0  0  0
   12.8427   -6.6544    0.0000 C   0  0  0  0  0  0  0  0  0  0  0  0
    7.8545   -7.8879    0.0000 N   0  0  0  0  0  0  0  0  0  0  0  0
   10.7049   -6.2335    0.0000 C   0  0  0  0  0  0  0  0  0  0  0  0
   12.1301   -6.2377    0.0000 C   0  0  0  0  0  0  0  0  0  0  0  0
    7.1461   -9.9590    0.0000 C   0  0  0  0  0  0  0  0  0  0  0  0
   11.4134   -6.6503    0.0000 C   0  0  0  0  0  0  0  0  0  0  0  0
    5.7168   -9.1298    0.0000 C   0  0  0  0  0  0  0  0  0  0  0  0
    8.5755   -9.1214    0.0000 C   0  0  0  0  0  0  0  0  0  0  0  0
    9.9882   -7.4754    0.0000 C   0  0  0  0  0  0  0  0  0  0  0  0
    9.2756   -6.2377    0.0000 C   0  0  0  0  0  0  0  0  0  0  0  0
   12.8427   -7.4795    0.0000 O   0  0  0  0  0  0  0  0  0  0  0  0
    9.2881  -10.3549    0.0000 N   0  0  0  0  0  0  0  0  0  0  0  0
    8.5588   -6.6503    0.0000 C   0  0  0  0  0  0  0  0  0  0  0  0
    9.2797   -7.8838    0.0000 C   0  0  0  0  0  0  0  0  0  0  0  0
    8.5671   -7.4712    0.0000 C   0  0  0  0  0  0  0  0  0  0  0  0
    5.7168   -9.9590    0.0000 C   0  0  0  0  0  0  0  0  0  0  0  0
   13.5595   -6.2419    0.0000 N   0  0  0  0  0  0  0  0  0  0  0  0
    6.4252   -7.8921    0.0000 F   0  0  0  0  0  0  0  0  0  0  0  0
    6.4294  -10.3716    0.0000 C   0  0  0  0  0  0  0  0  0  0  0  0
    5.0000  -10.3716    0.0000 Cl  0  0  0  0  0  0  0  0  0  0  0  0
    8.5755   -9.9465    0.0000 C   0  0  0  0  0  0  0  0  0  0  0  0
   10.6966   -5.4168    0.0000 C   0  0  0  0  0  0  0  0  0  0  0  0
   12.1301   -5.4126    0.0000 C   0  0  0  0  0  0  0  0  0  0  0  0
   11.4092   -5.0000    0.0000 C   0  0  0  0  0  0  0  0  0  0  0  0
    9.2797   -8.7047    0.0000 C   0  0  0  0  0  0  0  0  0  0  0  0
   10.0048   -9.9382    0.0000 C   0  0  0  0  0  0  0  0  0  0  0  0
    9.9965   -9.1089    0.0000 C   0  0  0  0  0  0  0  0  0  0  0  0
  2  1  1  0  0  0  0
  3 14  1  0  0  0  0
  4  1  2  0  0  0  0
  5  8  1  0  0  0  0
  6  2  1  0  0  0  0
  7  3  1  0  0  0  0
  8 10  1  0  0  0  0
  9  1  1  0  0  0  0
 10  7  2  0  0  0  0
 11  4  1  0  0  0  0
 12  2  1  0  0  0  0
 13 18  1  0  0  0  0
 14 17  1  0  0  0  0
 15  5  2  0  0  0  0
 16 25  1  0  0  0  0
 17 19  1  0  0  0  0
 18 19  1  0  0  0  0
 19  6  1  0  0  0  0
 20 11  2  0  0  0  0
 21  5  1  0  0  0  0
 22  4  1  0  0  0  0
 23  9  2  0  0  0  0
 24 20  1  0  0  0  0
 25 12  2  0  0  0  0
 26  7  1  0  0  0  0
 27 28  1  0  0  0  0
 28 26  2  0  0  0  0
 29 12  1  0  0  0  0
 30 16  2  0  0  0  0
 31 29  2  0  0  0  0
 23 20  1  0  0  0  0
 31 30  1  0  0  0  0
  3 13  1  0  0  0  0
 27  8  2  0  0  0  0
M  END
> <Molecule Name>
DNDI1599458

> <CDD Number>
CDD-1535802

> <IC50_uM>
0.0715 (n=1)

$$$$

SketchEl molfile

 31 34  0  0  0  0  0  0  0  0999 V2000
    5.7128  -10.3730    0.0000 C   0  0  0  0  0  0  0  0  0  0  0  0
   10.7065   -6.6465    0.0000 N   0  0  0  0  0  0  0  0  0  0  0  0
    8.5723   -8.7140    0.0000 C   0  0  0  0  0  0  0  0  0  0  0  0
   11.4193   -6.2338    0.0000 C   0  0  0  0  0  0  0  0  0  0  0  0
    8.5681   -7.8886    0.0000 N   0  0  0  0  0  0  0  0  0  0  0  0
    6.4297   -9.9603    0.0000 C   0  0  0  0  0  0  0  0  0  0  0  0
    9.2892   -9.1225    0.0000 C   0  0  0  0  0  0  0  0  0  0  0  0
    7.8595   -9.1308    0.0000 C   0  0  0  0  0  0  0  0  0  0  0  0
   10.7023   -7.4760    0.0000 C   0  0  0  0  0  0  0  0  0  0  0  0
    9.9895   -6.2380    0.0000 C   0  0  0  0  0  0  0  0  0  0  0  0
   11.4109   -5.4168    0.0000 C   0  0  0  0  0  0  0  0  0  0  0  0
   10.0020  -10.3563    0.0000 N   0  0  0  0  0  0  0  0  0  0  0  0
    7.1425  -10.3730    0.0000 C   0  0  0  0  0  0  0  0  0  0  0  0
    6.4297   -9.1350    0.0000 C   0  0  0  0  0  0  0  0  0  0  0  0
    7.8595   -9.9603    0.0000 C   0  0  0  0  0  0  0  0  0  0  0  0
    7.1425   -8.7181    0.0000 C   0  0  0  0  0  0  0  0  0  0  0  0
    5.0000   -9.9603    0.0000 F   0  0  0  0  0  0  0  0  0  0  0  0
    5.7128  -11.1983    0.0000 F   0  0  0  0  0  0  0  0  0  0  0  0
    5.5002   -9.5768    0.0000 F   0  0  0  0  0  0  0  0  0  0  0  0
    9.9937   -7.8845    0.0000 C   0  0  0  0  0  0  0  0  0  0  0  0
    9.2726   -6.6506    0.0000 C   0  0  0  0  0  0  0  0  0  0  0  0
    9.2809   -7.4718    0.0000 C   0  0  0  0  0  0  0  0  0  0  0  0
   10.6940   -5.0083    0.0000 F   0  0  0  0  0  0  0  0  0  0  0  0
    9.2892   -9.9478    0.0000 C   0  0  0  0  0  0  0  0  0  0  0  0
   12.1279   -6.6506    0.0000 C   0  0  0  0  0  0  0  0  0  0  0  0
    9.9937   -8.7056    0.0000 C   0  0  0  0  0  0  0  0  0  0  0  0
   10.7190   -9.9395    0.0000 C   0  0  0  0  0  0  0  0  0  0  0  0
   12.1237   -5.0000    0.0000 C   0  0  0  0  0  0  0  0  0  0  0  0
   10.7106   -9.1100    0.0000 C   0  0  0  0  0  0  0  0  0  0  0  0
   12.8448   -6.2380    0.0000 C   0  0  0  0  0  0  0  0  0  0  0  0
   12.8448   -5.4126    0.0000 C   0  0  0  0  0  0  0  0  0  0  0  0
  2 10  1  0  0  0  0
  3  8  1  0  0  0  0
  4  2  1  0  0  0  0
  5  3  1  0  0  0  0
  6  1  1  0  0  0  0
  7  3  1  0  0  0  0
  8 16  2  0  0  0  0
  9 20  1  0  0  0  0
 10 21  1  0  0  0  0
 11  4  1  0  0  0  0
 12 24  1  0  0  0  0
 13  6  1  0  0  0  0
 14  6  2  0  0  0  0
 15 13  2  0  0  0  0
 16 14  1  0  0  0  0
 17  1  1  0  0  0  0
 18  1  1  0  0  0  0
 19  1  1  0  0  0  0
 20 22  1  0  0  0  0
 21 22  1  0  0  0  0
 22  5  1  0  0  0  0
 23 11  1  0  0  0  0
 24  7  2  0  0  0  0
 25  4  2  0  0  0  0
 26  7  1  0  0  0  0
 27 12  2  0  0  0  0
 28 11  2  0  0  0  0
 29 26  2  0  0  0  0
 30 25  1  0  0  0  0
 31 28  1  0  0  0  0
  8 15  1  0  0  0  0
 29 27  1  0  0  0  0
  2  9  1  0  0  0  0
 31 30  2  0  0  0  0
M  END
> <Molecule Name>
DNDI1599459

> <CDD Number>
CDD-1535803

> <IC50_uM>
0.017 (n=1)

$$$$

SketchEl molfile

 33 36  0  0  0  0  0  0  0  0999 V2000
    7.1464   -9.9556    0.0000 C   0  0  0  0  0  0  0  0  0  0  0  0
   12.8439   -5.8253    0.0000 C   0  0  0  0  0  0  0  0  0  0  0  0
    7.8591   -9.5388    0.0000 C   0  0  0  0  0  0  0  0  0  0  0  0
    9.9931   -7.4716    0.0000 N   0  0  0  0  0  0  0  0  0  0  0  0
   10.7058   -7.0589    0.0000 C   0  0  0  0  0  0  0  0  0  0  0  0
    6.4296   -9.5430    0.0000 C   0  0  0  0  0  0  0  0  0  0  0  0
   10.6974   -6.2420    0.0000 C   0  0  0  0  0  0  0  0  0  0  0  0
   12.1312   -6.2379    0.0000 C   0  0  0  0  0  0  0  0  0  0  0  0
    7.8550   -8.7136    0.0000 N   0  0  0  0  0  0  0  0  0  0  0  0
   11.4101   -5.8253    0.0000 C   0  0  0  0  0  0  0  0  0  0  0  0
    7.1464  -10.7850    0.0000 C   0  0  0  0  0  0  0  0  0  0  0  0
    5.7169   -9.9598    0.0000 C   0  0  0  0  0  0  0  0  0  0  0  0
   11.4143   -7.4757    0.0000 C   0  0  0  0  0  0  0  0  0  0  0  0
    8.5760   -9.9473    0.0000 C   0  0  0  0  0  0  0  0  0  0  0  0
    9.9889   -8.3010    0.0000 C   0  0  0  0  0  0  0  0  0  0  0  0
    9.2762   -7.0631    0.0000 C   0  0  0  0  0  0  0  0  0  0  0  0
   12.1312   -7.0631    0.0000 C   0  0  0  0  0  0  0  0  0  0  0  0
    9.2887  -11.1809    0.0000 N   0  0  0  0  0  0  0  0  0  0  0  0
   13.5607   -6.2379    0.0000 F   0  0  0  0  0  0  0  0  0  0  0  0
   12.8439   -5.0000    0.0000 F   0  0  0  0  0  0  0  0  0  0  0  0
   13.0606   -6.6213    0.0000 F   0  0  0  0  0  0  0  0  0  0  0  0
    9.2804   -8.7094    0.0000 C   0  0  0  0  0  0  0  0  0  0  0  0
    8.5593   -7.4757    0.0000 C   0  0  0  0  0  0  0  0  0  0  0  0
    8.5677   -8.2968    0.0000 C   0  0  0  0  0  0  0  0  0  0  0  0
    5.7169  -10.7850    0.0000 C   0  0  0  0  0  0  0  0  0  0  0  0
    6.4254   -8.7177    0.0000 F   0  0  0  0  0  0  0  0  0  0  0  0
    9.9806   -5.8336    0.0000 F   0  0  0  0  0  0  0  0  0  0  0  0
    6.4296  -11.1976    0.0000 C   0  0  0  0  0  0  0  0  0  0  0  0
    5.0000  -11.1976    0.0000 Cl  0  0  0  0  0  0  0  0  0  0  0  0
    8.5760  -10.7725    0.0000 C   0  0  0  0  0  0  0  0  0  0  0  0
    9.2804   -9.5305    0.0000 C   0  0  0  0  0  0  0  0  0  0  0  0
   10.0056  -10.7641    0.0000 C   0  0  0  0  0  0  0  0  0  0  0  0
    9.9972   -9.9347    0.0000 C   0  0  0  0  0  0  0  0  0  0  0  0
  2  8  1  0  0  0  0
  3  1  1  0  0  0  0
  4 16  1  0  0  0  0
  5  4  1  0  0  0  0
  6  1  2  0  0  0  0
  7  5  1  0  0  0  0
  8 10  1  0  0  0  0
  9  3  1  0  0  0  0
 10  7  2  0  0  0  0
 11  1  1  0  0  0  0
 12  6  1  0  0  0  0
 13  5  2  0  0  0  0
 14  3  1  0  0  0  0
 15 22  1  0  0  0  0
 16 23  1  0  0  0  0
 17 13  1  0  0  0  0
 18 30  1  0  0  0  0
 19  2  1  0  0  0  0
 20  2  1  0  0  0  0
 21  2  1  0  0  0  0
 22 24  1  0  0  0  0
 23 24  1  0  0  0  0
 24  9  1  0  0  0  0
 25 12  2  0  0  0  0
 26  6  1  0  0  0  0
 27  7  1  0  0  0  0
 28 11  2  0  0  0  0
 29 25  1  0  0  0  0
 30 14  2  0  0  0  0
 31 14  1  0  0  0  0
 32 18  2  0  0  0  0
 33 31  2  0  0  0  0
 28 25  1  0  0  0  0
 33 32  1  0  0  0  0
  4 15  1  0  0  0  0
  8 17  2  0  0  0  0
M  END
> <Molecule Name>
DNDI1599460

> <CDD Number>
CDD-1535804

> <IC50_uM>
0.0114891252930761 ร/รท 1.66843810152776 (n=2)

$$$$

SketchEl molfile

 31 34  0  0  0  0  0  0  0  0999 V2000
   10.6977   -6.2338    0.0000 C   0  0  0  0  0  0  0  0  0  0  0  0
    7.1466   -9.9475    0.0000 C   0  0  0  0  0  0  0  0  0  0  0  0
    7.8593   -9.5307    0.0000 C   0  0  0  0  0  0  0  0  0  0  0  0
   10.7061   -7.0507    0.0000 C   0  0  0  0  0  0  0  0  0  0  0  0
    9.9933   -7.4633    0.0000 N   0  0  0  0  0  0  0  0  0  0  0  0
    9.9808   -5.8253    0.0000 C   0  0  0  0  0  0  0  0  0  0  0  0
    6.4296   -9.5349    0.0000 C   0  0  0  0  0  0  0  0  0  0  0  0
    7.8551   -8.7054    0.0000 N   0  0  0  0  0  0  0  0  0  0  0  0
    7.1466  -10.7770    0.0000 C   0  0  0  0  0  0  0  0  0  0  0  0
    5.7169   -9.9475    0.0000 C   0  0  0  0  0  0  0  0  0  0  0  0
    8.5762   -9.9392    0.0000 C   0  0  0  0  0  0  0  0  0  0  0  0
    9.2764   -7.0549    0.0000 C   0  0  0  0  0  0  0  0  0  0  0  0
    9.9892   -8.2928    0.0000 C   0  0  0  0  0  0  0  0  0  0  0  0
    9.9767   -5.0000    0.0000 O   0  0  0  0  0  0  0  0  0  0  0  0
    9.2889  -11.1729    0.0000 N   0  0  0  0  0  0  0  0  0  0  0  0
    9.2806   -8.7013    0.0000 C   0  0  0  0  0  0  0  0  0  0  0  0
    8.5595   -7.4675    0.0000 C   0  0  0  0  0  0  0  0  0  0  0  0
    8.5679   -8.2886    0.0000 C   0  0  0  0  0  0  0  0  0  0  0  0
    5.7169  -10.7770    0.0000 C   0  0  0  0  0  0  0  0  0  0  0  0
    9.2723   -6.2421    0.0000 N   0  0  0  0  0  0  0  0  0  0  0  0
    6.4255   -8.7096    0.0000 F   0  0  0  0  0  0  0  0  0  0  0  0
    6.4296  -11.1896    0.0000 C   0  0  0  0  0  0  0  0  0  0  0  0
   11.4105   -5.8170    0.0000 C   0  0  0  0  0  0  0  0  0  0  0  0
    5.0000  -11.1896    0.0000 Cl  0  0  0  0  0  0  0  0  0  0  0  0
    8.5762  -10.7645    0.0000 C   0  0  0  0  0  0  0  0  0  0  0  0
   11.4147   -7.4675    0.0000 C   0  0  0  0  0  0  0  0  0  0  0  0
    9.2806   -9.5224    0.0000 C   0  0  0  0  0  0  0  0  0  0  0  0
   10.0058  -10.7561    0.0000 C   0  0  0  0  0  0  0  0  0  0  0  0
   12.1316   -6.2296    0.0000 C   0  0  0  0  0  0  0  0  0  0  0  0
    9.9975   -9.9267    0.0000 C   0  0  0  0  0  0  0  0  0  0  0  0
   12.1316   -7.0549    0.0000 C   0  0  0  0  0  0  0  0  0  0  0  0
  2  3  1  0  0  0  0
  3  8  1  0  0  0  0
  4  1  1  0  0  0  0
  5  4  1  0  0  0  0
  6  1  1  0  0  0  0
  7  2  2  0  0  0  0
  8 18  1  0  0  0  0
  9  2  1  0  0  0  0
 10  7  1  0  0  0  0
 11  3  1  0  0  0  0
 12  5  1  0  0  0  0
 13  5  1  0  0  0  0
 14  6  2  0  0  0  0
 15 25  1  0  0  0  0
 16 13  1  0  0  0  0
 17 12  1  0  0  0  0
 18 17  1  0  0  0  0
 19 10  2  0  0  0  0
 20  6  1  0  0  0  0
 21  7  1  0  0  0  0
 22  9  2  0  0  0  0
 23  1  2  0  0  0  0
 24 19  1  0  0  0  0
 25 11  2  0  0  0  0
 26  4  2  0  0  0  0
 27 11  1  0  0  0  0
 28 15  2  0  0  0  0
 29 23  1  0  0  0  0
 30 27  2  0  0  0  0
 31 26  1  0  0  0  0
 29 31  2  0  0  0  0
 16 18  1  0  0  0  0
 30 28  1  0  0  0  0
 22 19  1  0  0  0  0
M  END
> <Molecule Name>
DNDI1599461

> <CDD Number>
CDD-1535805

> <IC50_uM>
0.076 (n=1)

$$$$

SketchEl molfile

 32 35  0  0  0  0  0  0  0  0999 V2000
   10.6971   -6.2336    0.0000 C   0  0  0  0  0  0  0  0  0  0  0  0
    9.9803   -5.8252    0.0000 C   0  0  0  0  0  0  0  0  0  0  0  0
    7.1463   -9.9470    0.0000 C   0  0  0  0  0  0  0  0  0  0  0  0
    7.8590   -9.5302    0.0000 C   0  0  0  0  0  0  0  0  0  0  0  0
   10.7055   -7.0505    0.0000 C   0  0  0  0  0  0  0  0  0  0  0  0
    9.9928   -7.4631    0.0000 N   0  0  0  0  0  0  0  0  0  0  0  0
    6.4295   -9.5344    0.0000 C   0  0  0  0  0  0  0  0  0  0  0  0
    7.8548   -8.7050    0.0000 N   0  0  0  0  0  0  0  0  0  0  0  0
    7.1463  -10.7763    0.0000 C   0  0  0  0  0  0  0  0  0  0  0  0
    5.7168   -9.9470    0.0000 C   0  0  0  0  0  0  0  0  0  0  0  0
    8.5758   -9.9386    0.0000 C   0  0  0  0  0  0  0  0  0  0  0  0
    9.2760   -7.0546    0.0000 C   0  0  0  0  0  0  0  0  0  0  0  0
    9.9886   -8.2924    0.0000 C   0  0  0  0  0  0  0  0  0  0  0  0
    9.2885  -11.1722    0.0000 N   0  0  0  0  0  0  0  0  0  0  0  0
    9.9761   -5.0000    0.0000 F   0  0  0  0  0  0  0  0  0  0  0  0
    9.2718   -6.2420    0.0000 F   0  0  0  0  0  0  0  0  0  0  0  0
   10.5638   -5.2376    0.0000 F   0  0  0  0  0  0  0  0  0  0  0  0
    8.5591   -7.4672    0.0000 C   0  0  0  0  0  0  0  0  0  0  0  0
    9.2801   -8.7008    0.0000 C   0  0  0  0  0  0  0  0  0  0  0  0
    8.5675   -8.2882    0.0000 C   0  0  0  0  0  0  0  0  0  0  0  0
    5.7168  -10.7763    0.0000 C   0  0  0  0  0  0  0  0  0  0  0  0
    6.4253   -8.7092    0.0000 F   0  0  0  0  0  0  0  0  0  0  0  0
    6.4295  -11.1889    0.0000 C   0  0  0  0  0  0  0  0  0  0  0  0
   11.4098   -5.8169    0.0000 C   0  0  0  0  0  0  0  0  0  0  0  0
    5.0000  -11.1889    0.0000 Cl  0  0  0  0  0  0  0  0  0  0  0  0
    8.5758  -10.7638    0.0000 C   0  0  0  0  0  0  0  0  0  0  0  0
   11.4139   -7.4672    0.0000 C   0  0  0  0  0  0  0  0  0  0  0  0
    9.2801   -9.5219    0.0000 C   0  0  0  0  0  0  0  0  0  0  0  0
   10.0053  -10.7555    0.0000 C   0  0  0  0  0  0  0  0  0  0  0  0
   12.1308   -6.2294    0.0000 C   0  0  0  0  0  0  0  0  0  0  0  0
    9.9970   -9.9261    0.0000 C   0  0  0  0  0  0  0  0  0  0  0  0
   12.1308   -7.0546    0.0000 C   0  0  0  0  0  0  0  0  0  0  0  0
  2  1  1  0  0  0  0
  3  4  1  0  0  0  0
  4  8  1  0  0  0  0
  5  1  1  0  0  0  0
  6  5  1  0  0  0  0
  7  3  2  0  0  0  0
  8 20  1  0  0  0  0
  9  3  1  0  0  0  0
 10  7  1  0  0  0  0
 11  4  1  0  0  0  0
 12  6  1  0  0  0  0
 13  6  1  0  0  0  0
 14 26  1  0  0  0  0
 15  2  1  0  0  0  0
 16  2  1  0  0  0  0
 17  2  1  0  0  0  0
 18 12  1  0  0  0  0
 19 13  1  0  0  0  0
 20 18  1  0  0  0  0
 21 10  2  0  0  0  0
 22  7  1  0  0  0  0
 23  9  2  0  0  0  0
 24  1  2  0  0  0  0
 25 21  1  0  0  0  0
 26 11  2  0  0  0  0
 27  5  2  0  0  0  0
 28 11  1  0  0  0  0
 29 31  1  0  0  0  0
 30 24  1  0  0  0  0
 31 28  2  0  0  0  0
 32 27  1  0  0  0  0
 30 32  2  0  0  0  0
 19 20  1  0  0  0  0
 23 21  1  0  0  0  0
 29 14  2  0  0  0  0
M  END
> <Molecule Name>
DNDI1602411

> <CDD Number>
CDD-1535806

> <IC50_uM>
0.017 (n=1)

$$$$

SketchEl molfile

 32 35  0  0  0  0  0  0  0  0999 V2000
   10.7052   -7.4713    0.0000 C   0  0  0  0  0  0  0  0  0  0  0  0
   10.6969   -6.6544    0.0000 N   0  0  0  0  0  0  0  0  0  0  0  0
    7.1462  -10.3676    0.0000 C   0  0  0  0  0  0  0  0  0  0  0  0
   11.4053   -5.4126    0.0000 C   0  0  0  0  0  0  0  0  0  0  0  0
    9.9926   -7.8838    0.0000 N   0  0  0  0  0  0  0  0  0  0  0  0
    7.8588   -9.9509    0.0000 C   0  0  0  0  0  0  0  0  0  0  0  0
    6.4294   -9.9550    0.0000 C   0  0  0  0  0  0  0  0  0  0  0  0
   11.4095   -6.2377    0.0000 C   0  0  0  0  0  0  0  0  0  0  0  0
    7.8547   -9.1257    0.0000 N   0  0  0  0  0  0  0  0  0  0  0  0
   11.4137   -7.8880    0.0000 N   0  0  0  0  0  0  0  0  0  0  0  0
    7.1462  -11.1969    0.0000 C   0  0  0  0  0  0  0  0  0  0  0  0
    5.7168  -10.3676    0.0000 C   0  0  0  0  0  0  0  0  0  0  0  0
    8.5756  -10.3593    0.0000 C   0  0  0  0  0  0  0  0  0  0  0  0
    9.2758   -7.4754    0.0000 C   0  0  0  0  0  0  0  0  0  0  0  0
    9.9884   -8.7131    0.0000 C   0  0  0  0  0  0  0  0  0  0  0  0
    9.2883  -11.5928    0.0000 N   0  0  0  0  0  0  0  0  0  0  0  0
   12.1221   -5.0000    0.0000 F   0  0  0  0  0  0  0  0  0  0  0  0
   10.6927   -5.0041    0.0000 F   0  0  0  0  0  0  0  0  0  0  0  0
   12.2055   -5.6251    0.0000 F   0  0  0  0  0  0  0  0  0  0  0  0
    9.2799   -9.1216    0.0000 C   0  0  0  0  0  0  0  0  0  0  0  0
    8.5590   -7.8880    0.0000 C   0  0  0  0  0  0  0  0  0  0  0  0
    8.5673   -8.7090    0.0000 C   0  0  0  0  0  0  0  0  0  0  0  0
    5.7168  -11.1969    0.0000 C   0  0  0  0  0  0  0  0  0  0  0  0
    6.4253   -9.1299    0.0000 F   0  0  0  0  0  0  0  0  0  0  0  0
   12.1304   -6.6503    0.0000 C   0  0  0  0  0  0  0  0  0  0  0  0
    6.4294  -11.6095    0.0000 C   0  0  0  0  0  0  0  0  0  0  0  0
   12.1304   -7.4754    0.0000 C   0  0  0  0  0  0  0  0  0  0  0  0
    5.0000  -11.6095    0.0000 Cl  0  0  0  0  0  0  0  0  0  0  0  0
    8.5756  -11.1844    0.0000 C   0  0  0  0  0  0  0  0  0  0  0  0
    9.2799   -9.9425    0.0000 C   0  0  0  0  0  0  0  0  0  0  0  0
   10.0051  -11.1761    0.0000 C   0  0  0  0  0  0  0  0  0  0  0  0
    9.9967  -10.3468    0.0000 C   0  0  0  0  0  0  0  0  0  0  0  0
  2  1  1  0  0  0  0
  3  6  1  0  0  0  0
  4  8  1  0  0  0  0
  5  1  1  0  0  0  0
  6  9  1  0  0  0  0
  7  3  2  0  0  0  0
  8  2  2  0  0  0  0
  9 22  1  0  0  0  0
 10  1  2  0  0  0  0
 11  3  1  0  0  0  0
 12  7  1  0  0  0  0
 13  6  1  0  0  0  0
 14  5  1  0  0  0  0
 15  5  1  0  0  0  0
 16 29  1  0  0  0  0
 17  4  1  0  0  0  0
 18  4  1  0  0  0  0
 19  4  1  0  0  0  0
 20 15  1  0  0  0  0
 21 14  1  0  0  0  0
 22 21  1  0  0  0  0
 23 12  2  0  0  0  0
 24  7  1  0  0  0  0
 25  8  1  0  0  0  0
 26 11  2  0  0  0  0
 27 10  1  0  0  0  0
 28 23  1  0  0  0  0
 29 13  2  0  0  0  0
 30 13  1  0  0  0  0
 31 32  1  0  0  0  0
 32 30  2  0  0  0  0
 25 27  2  0  0  0  0
 20 22  1  0  0  0  0
 26 23  1  0  0  0  0
 31 16  2  0  0  0  0
M  END
> <Molecule Name>
DNDI1602513

> <CDD Number>
CDD-1535807

> <IC50_uM>
0.0225 (n=1)

$$$$

SketchEl molfile

 32 35  0  0  0  0  0  0  0  0999 V2000
    5.7125  -12.0167    0.0000 C   0  0  0  0  0  0  0  0  0  0  0  0
    8.5667   -9.5334    0.0000 N   0  0  0  0  0  0  0  0  0  0  0  0
    7.8458   -5.0000    0.0000 N   0  0  0  0  0  0  0  0  0  0  0  0
    8.5708  -10.3584    0.0000 C   0  0  0  0  0  0  0  0  0  0  0  0
    8.5625   -5.4167    0.0000 C   0  0  0  0  0  0  0  0  0  0  0  0
    9.2750   -5.8292    0.0000 C   0  0  0  0  0  0  0  0  0  0  0  0
    9.2792   -6.6500    0.0000 C   0  0  0  0  0  0  0  0  0  0  0  0
    6.4292  -11.6042    0.0000 C   0  0  0  0  0  0  0  0  0  0  0  0
    8.5667   -7.0625    0.0000 O   0  0  0  0  0  0  0  0  0  0  0  0
    9.2875  -10.7667    0.0000 C   0  0  0  0  0  0  0  0  0  0  0  0
    7.8583  -10.7750    0.0000 C   0  0  0  0  0  0  0  0  0  0  0  0
    7.8500   -9.1292    0.0000 C   0  0  0  0  0  0  0  0  0  0  0  0
    9.2792   -9.1209    0.0000 C   0  0  0  0  0  0  0  0  0  0  0  0
   10.0000  -12.0000    0.0000 N   0  0  0  0  0  0  0  0  0  0  0  0
    7.1417  -12.0167    0.0000 C   0  0  0  0  0  0  0  0  0  0  0  0
    6.4292  -10.7792    0.0000 C   0  0  0  0  0  0  0  0  0  0  0  0
    5.7125  -12.8417    0.0000 F   0  0  0  0  0  0  0  0  0  0  0  0
    5.5000  -11.2209    0.0000 F   0  0  0  0  0  0  0  0  0  0  0  0
    5.0000  -11.6042    0.0000 F   0  0  0  0  0  0  0  0  0  0  0  0
    7.1417  -10.3625    0.0000 C   0  0  0  0  0  0  0  0  0  0  0  0
    7.8583  -11.6042    0.0000 C   0  0  0  0  0  0  0  0  0  0  0  0
    9.2792   -8.3000    0.0000 C   0  0  0  0  0  0  0  0  0  0  0  0
    7.8500   -8.3000    0.0000 C   0  0  0  0  0  0  0  0  0  0  0  0
    8.5667   -7.8875    0.0000 C   0  0  0  0  0  0  0  0  0  0  0  0
    9.2875  -11.5917    0.0000 C   0  0  0  0  0  0  0  0  0  0  0  0
    9.9875   -5.4125    0.0000 C   0  0  0  0  0  0  0  0  0  0  0  0
    9.9917   -7.0625    0.0000 C   0  0  0  0  0  0  0  0  0  0  0  0
    9.9917  -10.3500    0.0000 C   0  0  0  0  0  0  0  0  0  0  0  0
   10.7167  -11.5834    0.0000 C   0  0  0  0  0  0  0  0  0  0  0  0
   10.7083  -10.7542    0.0000 C   0  0  0  0  0  0  0  0  0  0  0  0
   10.7083   -5.8250    0.0000 C   0  0  0  0  0  0  0  0  0  0  0  0
   10.7083   -6.6500    0.0000 C   0  0  0  0  0  0  0  0  0  0  0  0
  2  4  1  0  0  0  0
  3  5  3  0  0  0  0
  4 11  1  0  0  0  0
  5  6  1  0  0  0  0
  6  7  1  0  0  0  0
  7  9  1  0  0  0  0
  8  1  1  0  0  0  0
  9 24  1  0  0  0  0
 10  4  1  0  0  0  0
 11 20  2  0  0  0  0
 12  2  1  0  0  0  0
 13  2  1  0  0  0  0
 14 25  1  0  0  0  0
 15  8  1  0  0  0  0
 16  8  2  0  0  0  0
 17  1  1  0  0  0  0
 18  1  1  0  0  0  0
 19  1  1  0  0  0  0
 20 16  1  0  0  0  0
 21 15  2  0  0  0  0
 22 13  1  0  0  0  0
 23 12  1  0  0  0  0
 24 23  1  0  0  0  0
 25 10  2  0  0  0  0
 26  6  2  0  0  0  0
 27  7  2  0  0  0  0
 28 10  1  0  0  0  0
 29 30  1  0  0  0  0
 30 28  2  0  0  0  0
 31 26  1  0  0  0  0
 32 27  1  0  0  0  0
 11 21  1  0  0  0  0
 24 22  1  0  0  0  0
 29 14  2  0  0  0  0
 31 32  2  0  0  0  0
M  END
> <Molecule Name>
DNDI1607264

> <CDD Number>
CDD-1535808

> <IC50_uM>
0.048 (n=1)

$$$$

SketchEl molfile

 30 33  0  0  0  0  0  0  0  0999 V2000
    5.7125  -11.6042    0.0000 C   0  0  0  0  0  0  0  0  0  0  0  0
    8.5667   -9.1208    0.0000 N   0  0  0  0  0  0  0  0  0  0  0  0
    8.5709   -9.9458    0.0000 C   0  0  0  0  0  0  0  0  0  0  0  0
    6.4292  -11.1917    0.0000 C   0  0  0  0  0  0  0  0  0  0  0  0
    9.2875  -10.3542    0.0000 C   0  0  0  0  0  0  0  0  0  0  0  0
    7.8584  -10.3625    0.0000 C   0  0  0  0  0  0  0  0  0  0  0  0
    9.2792   -8.7083    0.0000 C   0  0  0  0  0  0  0  0  0  0  0  0
    7.8500   -8.7167    0.0000 C   0  0  0  0  0  0  0  0  0  0  0  0
   10.0000  -11.5875    0.0000 N   0  0  0  0  0  0  0  0  0  0  0  0
    6.4292  -10.3625    0.0000 C   0  0  0  0  0  0  0  0  0  0  0  0
    7.1417  -11.6042    0.0000 C   0  0  0  0  0  0  0  0  0  0  0  0
    5.5000  -10.8084    0.0000 F   0  0  0  0  0  0  0  0  0  0  0  0
    5.0000  -11.1917    0.0000 F   0  0  0  0  0  0  0  0  0  0  0  0
    5.7125  -12.4292    0.0000 F   0  0  0  0  0  0  0  0  0  0  0  0
    7.8584  -11.1917    0.0000 C   0  0  0  0  0  0  0  0  0  0  0  0
    7.1417   -9.9500    0.0000 C   0  0  0  0  0  0  0  0  0  0  0  0
    7.8500   -7.8875    0.0000 C   0  0  0  0  0  0  0  0  0  0  0  0
    9.2792   -7.8875    0.0000 C   0  0  0  0  0  0  0  0  0  0  0  0
    8.5667   -6.6500    0.0000 O   0  0  0  0  0  0  0  0  0  0  0  0
    8.5667   -7.4750    0.0000 C   0  0  0  0  0  0  0  0  0  0  0  0
    9.2792   -6.2375    0.0000 C   0  0  0  0  0  0  0  0  0  0  0  0
    9.2875  -11.1792    0.0000 C   0  0  0  0  0  0  0  0  0  0  0  0
    9.9917   -9.9375    0.0000 C   0  0  0  0  0  0  0  0  0  0  0  0
   10.7167  -11.1709    0.0000 C   0  0  0  0  0  0  0  0  0  0  0  0
    9.9917   -6.6500    0.0000 C   0  0  0  0  0  0  0  0  0  0  0  0
    9.2750   -5.4166    0.0000 C   0  0  0  0  0  0  0  0  0  0  0  0
   10.7084  -10.3417    0.0000 C   0  0  0  0  0  0  0  0  0  0  0  0
    9.9875   -5.0000    0.0000 C   0  0  0  0  0  0  0  0  0  0  0  0
   10.7084   -6.2375    0.0000 C   0  0  0  0  0  0  0  0  0  0  0  0
   10.7084   -5.4125    0.0000 C   0  0  0  0  0  0  0  0  0  0  0  0
  2  3  1  0  0  0  0
  3  6  1  0  0  0  0
  4  1  1  0  0  0  0
  5  3  1  0  0  0  0
  6 16  2  0  0  0  0
  7  2  1  0  0  0  0
  8  2  1  0  0  0  0
  9 22  1  0  0  0  0
 10  4  2  0  0  0  0
 11  4  1  0  0  0  0
 12  1  1  0  0  0  0
 13  1  1  0  0  0  0
 14  1  1  0  0  0  0
 15 11  2  0  0  0  0
 16 10  1  0  0  0  0
 17  8  1  0  0  0  0
 18  7  1  0  0  0  0
 19 20  1  0  0  0  0
 20 17  1  0  0  0  0
 21 19  1  0  0  0  0
 22  5  2  0  0  0  0
 23  5  1  0  0  0  0
 24 27  1  0  0  0  0
 25 21  2  0  0  0  0
 26 21  1  0  0  0  0
 27 23  2  0  0  0  0
 28 26  2  0  0  0  0
 29 25  1  0  0  0  0
 30 28  1  0  0  0  0
  6 15  1  0  0  0  0
 20 18  1  0  0  0  0
 24  9  2  0  0  0  0
 30 29  2  0  0  0  0
M  END
> <Molecule Name>
DNDI1607265

> <CDD Number>
CDD-1535809

> <IC50_uM>
0.0265 (n=1)

$$$$

SketchEl molfile

 29 32  0  0  0  0  0  0  0  0999 V2000
   10.7068   -7.5452    0.0000 C   0  0  0  0  0  0  0  0  0  0  0  0
   11.4566   -7.8826    0.0000 N   0  0  0  0  0  0  0  0  0  0  0  0
   10.7901   -6.7246    0.0000 S   0  0  0  0  0  0  0  0  0  0  0  0
    7.1453  -10.4361    0.0000 C   0  0  0  0  0  0  0  0  0  0  0  0
    9.9945   -7.9576    0.0000 N   0  0  0  0  0  0  0  0  0  0  0  0
    7.8576  -10.0195    0.0000 C   0  0  0  0  0  0  0  0  0  0  0  0
   11.5982   -6.5538    0.0000 C   0  0  0  0  0  0  0  0  0  0  0  0
    6.4288  -10.0237    0.0000 C   0  0  0  0  0  0  0  0  0  0  0  0
   12.0106   -7.2703    0.0000 C   0  0  0  0  0  0  0  0  0  0  0  0
   12.1439   -5.0000    0.0000 N   0  0  0  0  0  0  0  0  0  0  0  0
   11.9315   -5.7998    0.0000 C   0  0  0  0  0  0  0  0  0  0  0  0
    7.8534   -9.1947    0.0000 N   0  0  0  0  0  0  0  0  0  0  0  0
    7.1453  -11.2650    0.0000 C   0  0  0  0  0  0  0  0  0  0  0  0
    5.7165  -10.4361    0.0000 C   0  0  0  0  0  0  0  0  0  0  0  0
    8.5740  -10.4277    0.0000 C   0  0  0  0  0  0  0  0  0  0  0  0
    9.2780   -7.5452    0.0000 C   0  0  0  0  0  0  0  0  0  0  0  0
    9.9903   -8.7823    0.0000 C   0  0  0  0  0  0  0  0  0  0  0  0
    9.2863  -11.6607    0.0000 N   0  0  0  0  0  0  0  0  0  0  0  0
    8.5615   -7.9576    0.0000 C   0  0  0  0  0  0  0  0  0  0  0  0
    9.2822   -9.1947    0.0000 C   0  0  0  0  0  0  0  0  0  0  0  0
    8.5657   -8.7782    0.0000 C   0  0  0  0  0  0  0  0  0  0  0  0
    5.7165  -11.2650    0.0000 C   0  0  0  0  0  0  0  0  0  0  0  0
    6.4246   -9.1989    0.0000 F   0  0  0  0  0  0  0  0  0  0  0  0
    6.4288  -11.6774    0.0000 C   0  0  0  0  0  0  0  0  0  0  0  0
    5.0000  -11.6774    0.0000 Cl  0  0  0  0  0  0  0  0  0  0  0  0
    8.5740  -11.2525    0.0000 C   0  0  0  0  0  0  0  0  0  0  0  0
    9.2780  -10.0112    0.0000 C   0  0  0  0  0  0  0  0  0  0  0  0
   10.0028  -11.2442    0.0000 C   0  0  0  0  0  0  0  0  0  0  0  0
    9.9945  -10.4152    0.0000 C   0  0  0  0  0  0  0  0  0  0  0  0
  2  1  2  0  0  0  0
  3  1  1  0  0  0  0
  4  6  1  0  0  0  0
  5  1  1  0  0  0  0
  6 12  1  0  0  0  0
  7  3  1  0  0  0  0
  8  4  2  0  0  0  0
  9  2  1  0  0  0  0
 10 11  3  0  0  0  0
 11  7  1  0  0  0  0
 12 21  1  0  0  0  0
 13  4  1  0  0  0  0
 14  8  1  0  0  0  0
 15  6  1  0  0  0  0
 16  5  1  0  0  0  0
 17  5  1  0  0  0  0
 18 26  1  0  0  0  0
 19 16  1  0  0  0  0
 20 17  1  0  0  0  0
 21 19  1  0  0  0  0
 22 14  2  0  0  0  0
 23  8  1  0  0  0  0
 24 13  2  0  0  0  0
 25 22  1  0  0  0  0
 26 15  2  0  0  0  0
 27 15  1  0  0  0  0
 28 18  2  0  0  0  0
 29 27  2  0  0  0  0
  7  9  2  0  0  0  0
 20 21  1  0  0  0  0
 29 28  1  0  0  0  0
 24 22  1  0  0  0  0
M  END
> <Molecule Name>
DNDI1607266

> <CDD Number>
CDD-1535810

> <IC50_uM>
0.021 (n=1)

$$$$

SketchEl molfile

 29 32  0  0  0  0  0  0  0  0999 V2000
   10.7084   -6.2334    0.0000 C   0  0  0  0  0  0  0  0  0  0  0  0
    7.1458   -9.1250    0.0000 C   0  0  0  0  0  0  0  0  0  0  0  0
    9.9958   -6.6459    0.0000 N   0  0  0  0  0  0  0  0  0  0  0  0
    7.8583   -8.7084    0.0000 C   0  0  0  0  0  0  0  0  0  0  0  0
   11.4209   -6.6500    0.0000 N   0  0  0  0  0  0  0  0  0  0  0  0
   10.7042   -5.4125    0.0000 N   0  0  0  0  0  0  0  0  0  0  0  0
    6.4292   -8.7125    0.0000 C   0  0  0  0  0  0  0  0  0  0  0  0
    7.8542   -7.8834    0.0000 N   0  0  0  0  0  0  0  0  0  0  0  0
    7.1458   -9.9542    0.0000 C   0  0  0  0  0  0  0  0  0  0  0  0
    5.7167   -9.1250    0.0000 C   0  0  0  0  0  0  0  0  0  0  0  0
    8.5750   -9.1167    0.0000 C   0  0  0  0  0  0  0  0  0  0  0  0
    9.2792   -6.2334    0.0000 C   0  0  0  0  0  0  0  0  0  0  0  0
    9.9917   -7.4709    0.0000 C   0  0  0  0  0  0  0  0  0  0  0  0
    9.2875  -10.3500    0.0000 N   0  0  0  0  0  0  0  0  0  0  0  0
   12.1334   -5.4125    0.0000 C   0  0  0  0  0  0  0  0  0  0  0  0
    9.2833   -7.8834    0.0000 C   0  0  0  0  0  0  0  0  0  0  0  0
    8.5625   -6.6459    0.0000 C   0  0  0  0  0  0  0  0  0  0  0  0
    8.5667   -7.4667    0.0000 C   0  0  0  0  0  0  0  0  0  0  0  0
   11.4125   -5.0000    0.0000 C   0  0  0  0  0  0  0  0  0  0  0  0
   12.1334   -6.2375    0.0000 C   0  0  0  0  0  0  0  0  0  0  0  0
    5.7167   -9.9542    0.0000 C   0  0  0  0  0  0  0  0  0  0  0  0
    6.4250   -7.8875    0.0000 F   0  0  0  0  0  0  0  0  0  0  0  0
    6.4292  -10.3667    0.0000 C   0  0  0  0  0  0  0  0  0  0  0  0
   12.8500   -5.0000    0.0000 F   0  0  0  0  0  0  0  0  0  0  0  0
    5.0000  -10.3667    0.0000 Cl  0  0  0  0  0  0  0  0  0  0  0  0
    8.5750   -9.9417    0.0000 C   0  0  0  0  0  0  0  0  0  0  0  0
    9.2792   -8.7000    0.0000 C   0  0  0  0  0  0  0  0  0  0  0  0
   10.0042   -9.9334    0.0000 C   0  0  0  0  0  0  0  0  0  0  0  0
    9.9958   -9.1042    0.0000 C   0  0  0  0  0  0  0  0  0  0  0  0
  2  4  1  0  0  0  0
  3  1  1  0  0  0  0
  4  8  1  0  0  0  0
  5  1  2  0  0  0  0
  6  1  1  0  0  0  0
  7  2  2  0  0  0  0
  8 18  1  0  0  0  0
  9  2  1  0  0  0  0
 10  7  1  0  0  0  0
 11  4  1  0  0  0  0
 12  3  1  0  0  0  0
 13  3  1  0  0  0  0
 14 26  1  0  0  0  0
 15 19  1  0  0  0  0
 16 13  1  0  0  0  0
 17 12  1  0  0  0  0
 18 17  1  0  0  0  0
 19  6  2  0  0  0  0
 20  5  1  0  0  0  0
 21 10  2  0  0  0  0
 22  7  1  0  0  0  0
 23  9  2  0  0  0  0
 24 15  1  0  0  0  0
 25 21  1  0  0  0  0
 26 11  2  0  0  0  0
 27 11  1  0  0  0  0
 28 14  2  0  0  0  0
 29 27  2  0  0  0  0
 15 20  2  0  0  0  0
 16 18  1  0  0  0  0
 29 28  1  0  0  0  0
 23 21  1  0  0  0  0
M  END
> <Molecule Name>
DNDI1607267

> <CDD Number>
CDD-1535811

> <IC50_uM>
0.032 (n=1)

$$$$

SketchEl molfile

 29 32  0  0  0  0  0  0  0  0999 V2000
    7.1460   -9.1253    0.0000 C   0  0  0  0  0  0  0  0  0  0  0  0
    7.8586   -8.7086    0.0000 C   0  0  0  0  0  0  0  0  0  0  0  0
    9.9962   -6.6460    0.0000 N   0  0  0  0  0  0  0  0  0  0  0  0
    6.4293   -8.7128    0.0000 C   0  0  0  0  0  0  0  0  0  0  0  0
    7.8544   -7.8836    0.0000 N   0  0  0  0  0  0  0  0  0  0  0  0
    7.1460   -9.9546    0.0000 C   0  0  0  0  0  0  0  0  0  0  0  0
    5.7167   -9.1295    0.0000 C   0  0  0  0  0  0  0  0  0  0  0  0
    8.5753   -9.1170    0.0000 C   0  0  0  0  0  0  0  0  0  0  0  0
   10.7088   -6.2334    0.0000 C   0  0  0  0  0  0  0  0  0  0  0  0
    9.2795   -6.2334    0.0000 C   0  0  0  0  0  0  0  0  0  0  0  0
    9.9921   -7.4710    0.0000 C   0  0  0  0  0  0  0  0  0  0  0  0
    9.2879  -10.3504    0.0000 N   0  0  0  0  0  0  0  0  0  0  0  0
    8.5628   -6.6460    0.0000 C   0  0  0  0  0  0  0  0  0  0  0  0
    9.2837   -7.8836    0.0000 C   0  0  0  0  0  0  0  0  0  0  0  0
    8.5670   -7.4669    0.0000 C   0  0  0  0  0  0  0  0  0  0  0  0
   11.4214   -6.6501    0.0000 C   0  0  0  0  0  0  0  0  0  0  0  0
   10.7046   -5.4125    0.0000 C   0  0  0  0  0  0  0  0  0  0  0  0
    5.7167   -9.9546    0.0000 C   0  0  0  0  0  0  0  0  0  0  0  0
    6.4251   -7.8877    0.0000 F   0  0  0  0  0  0  0  0  0  0  0  0
    6.4293  -10.3671    0.0000 C   0  0  0  0  0  0  0  0  0  0  0  0
   12.1339   -5.4125    0.0000 C   0  0  0  0  0  0  0  0  0  0  0  0
   11.4172   -5.0000    0.0000 C   0  0  0  0  0  0  0  0  0  0  0  0
   12.1339   -6.2376    0.0000 C   0  0  0  0  0  0  0  0  0  0  0  0
    5.0000  -10.3671    0.0000 Cl  0  0  0  0  0  0  0  0  0  0  0  0
    8.5753   -9.9421    0.0000 C   0  0  0  0  0  0  0  0  0  0  0  0
   12.8506   -5.0000    0.0000 Cl  0  0  0  0  0  0  0  0  0  0  0  0
    9.2795   -8.7003    0.0000 C   0  0  0  0  0  0  0  0  0  0  0  0
   10.0046   -9.9337    0.0000 C   0  0  0  0  0  0  0  0  0  0  0  0
    9.9962   -9.1045    0.0000 C   0  0  0  0  0  0  0  0  0  0  0  0
  2  1  1  0  0  0  0
  3 10  1  0  0  0  0
  4  1  2  0  0  0  0
  5  2  1  0  0  0  0
  6  1  1  0  0  0  0
  7  4  1  0  0  0  0
  8  2  1  0  0  0  0
  9  3  1  0  0  0  0
 10 13  1  0  0  0  0
 11 14  1  0  0  0  0
 12 25  1  0  0  0  0
 13 15  1  0  0  0  0
 14 15  1  0  0  0  0
 15  5  1  0  0  0  0
 16  9  2  0  0  0  0
 17  9  1  0  0  0  0
 18  7  2  0  0  0  0
 19  4  1  0  0  0  0
 20  6  2  0  0  0  0
 21 22  1  0  0  0  0
 22 17  2  0  0  0  0
 23 16  1  0  0  0  0
 24 18  1  0  0  0  0
 25  8  2  0  0  0  0
 26 21  1  0  0  0  0
 27  8  1  0  0  0  0
 28 12  2  0  0  0  0
 29 27  2  0  0  0  0
 20 18  1  0  0  0  0
 29 28  1  0  0  0  0
  3 11  1  0  0  0  0
 21 23  2  0  0  0  0
M  END
> <Molecule Name>
DNDI1607268

> <CDD Number>
CDD-1535812

> <IC50_uM>
0.0075 (n=1)

$$$$

SketchEl molfile

 29 32  0  0  0  0  0  0  0  0999 V2000
    7.1460   -9.1253    0.0000 C   0  0  0  0  0  0  0  0  0  0  0  0
    7.8586   -8.7086    0.0000 C   0  0  0  0  0  0  0  0  0  0  0  0
    9.9962   -6.6460    0.0000 N   0  0  0  0  0  0  0  0  0  0  0  0
    6.4293   -8.7128    0.0000 C   0  0  0  0  0  0  0  0  0  0  0  0
    7.8544   -7.8836    0.0000 N   0  0  0  0  0  0  0  0  0  0  0  0
    7.1460   -9.9546    0.0000 C   0  0  0  0  0  0  0  0  0  0  0  0
    5.7167   -9.1295    0.0000 C   0  0  0  0  0  0  0  0  0  0  0  0
    8.5753   -9.1170    0.0000 C   0  0  0  0  0  0  0  0  0  0  0  0
   10.7088   -6.2334    0.0000 C   0  0  0  0  0  0  0  0  0  0  0  0
    9.2795   -6.2334    0.0000 C   0  0  0  0  0  0  0  0  0  0  0  0
    9.9921   -7.4710    0.0000 C   0  0  0  0  0  0  0  0  0  0  0  0
    9.2878  -10.3504    0.0000 N   0  0  0  0  0  0  0  0  0  0  0  0
    8.5628   -6.6460    0.0000 C   0  0  0  0  0  0  0  0  0  0  0  0
    9.2837   -7.8836    0.0000 C   0  0  0  0  0  0  0  0  0  0  0  0
    8.5670   -7.4669    0.0000 C   0  0  0  0  0  0  0  0  0  0  0  0
   11.4214   -6.6501    0.0000 C   0  0  0  0  0  0  0  0  0  0  0  0
   10.7046   -5.4125    0.0000 C   0  0  0  0  0  0  0  0  0  0  0  0
    5.7167   -9.9546    0.0000 C   0  0  0  0  0  0  0  0  0  0  0  0
    6.4251   -7.8877    0.0000 F   0  0  0  0  0  0  0  0  0  0  0  0
    6.4293  -10.3671    0.0000 C   0  0  0  0  0  0  0  0  0  0  0  0
   12.1339   -5.4125    0.0000 C   0  0  0  0  0  0  0  0  0  0  0  0
   11.4130   -5.0000    0.0000 C   0  0  0  0  0  0  0  0  0  0  0  0
   12.1339   -6.2376    0.0000 C   0  0  0  0  0  0  0  0  0  0  0  0
    5.0000  -10.3671    0.0000 Cl  0  0  0  0  0  0  0  0  0  0  0  0
    8.5753   -9.9421    0.0000 C   0  0  0  0  0  0  0  0  0  0  0  0
   12.8506   -5.0000    0.0000 F   0  0  0  0  0  0  0  0  0  0  0  0
    9.2795   -8.7003    0.0000 C   0  0  0  0  0  0  0  0  0  0  0  0
   10.0046   -9.9337    0.0000 C   0  0  0  0  0  0  0  0  0  0  0  0
    9.9962   -9.1045    0.0000 C   0  0  0  0  0  0  0  0  0  0  0  0
  2  1  1  0  0  0  0
  3 10  1  0  0  0  0
  4  1  2  0  0  0  0
  5  2  1  0  0  0  0
  6  1  1  0  0  0  0
  7  4  1  0  0  0  0
  8  2  1  0  0  0  0
  9  3  1  0  0  0  0
 10 13  1  0  0  0  0
 11 14  1  0  0  0  0
 12 25  1  0  0  0  0
 13 15  1  0  0  0  0
 14 15  1  0  0  0  0
 15  5  1  0  0  0  0
 16  9  2  0  0  0  0
 17  9  1  0  0  0  0
 18  7  2  0  0  0  0
 19  4  1  0  0  0  0
 20  6  2  0  0  0  0
 21 22  1  0  0  0  0
 22 17  2  0  0  0  0
 23 16  1  0  0  0  0
 24 18  1  0  0  0  0
 25  8  2  0  0  0  0
 26 21  1  0  0  0  0
 27  8  1  0  0  0  0
 28 12  2  0  0  0  0
 29 27  2  0  0  0  0
 20 18  1  0  0  0  0
 29 28  1  0  0  0  0
  3 11  1  0  0  0  0
 21 23  2  0  0  0  0
M  END
> <Molecule Name>
DNDI1607269

> <CDD Number>
CDD-1535813

> <IC50_uM>
0.019 (n=1)

$$$$

SketchEl molfile

 32 35  0  0  0  0  0  0  0  0999 V2000
    5.7126  -11.6050    0.0000 C   0  0  0  0  0  0  0  0  0  0  0  0
    8.5671   -9.1213    0.0000 N   0  0  0  0  0  0  0  0  0  0  0  0
   12.1342   -7.0628    0.0000 N   0  0  0  0  0  0  0  0  0  0  0  0
    8.5713   -9.9465    0.0000 C   0  0  0  0  0  0  0  0  0  0  0  0
    6.4293  -11.1924    0.0000 C   0  0  0  0  0  0  0  0  0  0  0  0
   11.4216   -6.6502    0.0000 C   0  0  0  0  0  0  0  0  0  0  0  0
    9.2880  -10.3548    0.0000 C   0  0  0  0  0  0  0  0  0  0  0  0
    7.8587  -10.3632    0.0000 C   0  0  0  0  0  0  0  0  0  0  0  0
    7.8504   -8.7171    0.0000 C   0  0  0  0  0  0  0  0  0  0  0  0
    9.2797   -8.7088    0.0000 C   0  0  0  0  0  0  0  0  0  0  0  0
   10.0006  -11.5883    0.0000 N   0  0  0  0  0  0  0  0  0  0  0  0
    6.4293  -10.3632    0.0000 C   0  0  0  0  0  0  0  0  0  0  0  0
    7.1419  -11.6050    0.0000 C   0  0  0  0  0  0  0  0  0  0  0  0
    8.5671   -6.6502    0.0000 O   0  0  0  0  0  0  0  0  0  0  0  0
    9.2797   -6.2377    0.0000 C   0  0  0  0  0  0  0  0  0  0  0  0
    5.0000  -11.1924    0.0000 F   0  0  0  0  0  0  0  0  0  0  0  0
    5.7126  -12.4301    0.0000 F   0  0  0  0  0  0  0  0  0  0  0  0
    5.5001  -10.8091    0.0000 F   0  0  0  0  0  0  0  0  0  0  0  0
    7.8587  -11.1924    0.0000 C   0  0  0  0  0  0  0  0  0  0  0  0
    7.1419   -9.9506    0.0000 C   0  0  0  0  0  0  0  0  0  0  0  0
    7.8504   -7.8879    0.0000 C   0  0  0  0  0  0  0  0  0  0  0  0
    9.2797   -7.8879    0.0000 C   0  0  0  0  0  0  0  0  0  0  0  0
    8.5671   -7.4753    0.0000 C   0  0  0  0  0  0  0  0  0  0  0  0
   10.7091   -6.2377    0.0000 C   0  0  0  0  0  0  0  0  0  0  0  0
    9.9923   -6.6502    0.0000 C   0  0  0  0  0  0  0  0  0  0  0  0
    9.2880  -11.1799    0.0000 C   0  0  0  0  0  0  0  0  0  0  0  0
    9.9881   -5.0000    0.0000 C   0  0  0  0  0  0  0  0  0  0  0  0
    9.9923   -9.9381    0.0000 C   0  0  0  0  0  0  0  0  0  0  0  0
   10.7174  -11.1716    0.0000 C   0  0  0  0  0  0  0  0  0  0  0  0
    9.2755   -5.4167    0.0000 C   0  0  0  0  0  0  0  0  0  0  0  0
   10.7091   -5.4125    0.0000 C   0  0  0  0  0  0  0  0  0  0  0  0
   10.7091  -10.3423    0.0000 C   0  0  0  0  0  0  0  0  0  0  0  0
  2  4  1  0  0  0  0
  3  6  3  0  0  0  0
  4  8  1  0  0  0  0
  5  1  1  0  0  0  0
  6 24  1  0  0  0  0
  7  4  1  0  0  0  0
  8 20  2  0  0  0  0
  9  2  1  0  0  0  0
 10  2  1  0  0  0  0
 11 26  1  0  0  0  0
 12  5  2  0  0  0  0
 13  5  1  0  0  0  0
 14 23  1  0  0  0  0
 15 14  1  0  0  0  0
 16  1  1  0  0  0  0
 17  1  1  0  0  0  0
 18  1  1  0  0  0  0
 19 13  2  0  0  0  0
 20 12  1  0  0  0  0
 21  9  1  0  0  0  0
 22 10  1  0  0  0  0
 23 22  1  0  0  0  0
 24 25  1  0  0  0  0
 25 15  2  0  0  0  0
 26  7  2  0  0  0  0
 27 30  2  0  0  0  0
 28  7  1  0  0  0  0
 29 32  1  0  0  0  0
 30 15  1  0  0  0  0
 31 27  1  0  0  0  0
 32 28  2  0  0  0  0
  8 19  1  0  0  0  0
 21 23  1  0  0  0  0
 29 11  2  0  0  0  0
 31 24  2  0  0  0  0
M  END
> <Molecule Name>
DNDI1608215

> <CDD Number>
CDD-1535814

> <IC50_uM>
0.00786606636127613 ร/รท 1.06971737113391 (n=2)

$$$$

SketchEl molfile

 31 34  0  0  0  0  0  0  0  0999 V2000
    5.7125  -11.6046    0.0000 C   0  0  0  0  0  0  0  0  0  0  0  0
    8.5669   -9.1211    0.0000 N   0  0  0  0  0  0  0  0  0  0  0  0
    8.5711   -9.9462    0.0000 C   0  0  0  0  0  0  0  0  0  0  0  0
    6.4293  -11.1921    0.0000 C   0  0  0  0  0  0  0  0  0  0  0  0
    9.2878  -10.3546    0.0000 C   0  0  0  0  0  0  0  0  0  0  0  0
    7.8585  -10.3629    0.0000 C   0  0  0  0  0  0  0  0  0  0  0  0
    7.8502   -8.7169    0.0000 C   0  0  0  0  0  0  0  0  0  0  0  0
    9.2795   -8.7086    0.0000 C   0  0  0  0  0  0  0  0  0  0  0  0
   10.0003  -11.5880    0.0000 N   0  0  0  0  0  0  0  0  0  0  0  0
    6.4293  -10.3629    0.0000 C   0  0  0  0  0  0  0  0  0  0  0  0
    7.1418  -11.6046    0.0000 C   0  0  0  0  0  0  0  0  0  0  0  0
    5.0000  -11.1921    0.0000 F   0  0  0  0  0  0  0  0  0  0  0  0
    5.7125  -12.4297    0.0000 F   0  0  0  0  0  0  0  0  0  0  0  0
    5.5000  -10.8088    0.0000 F   0  0  0  0  0  0  0  0  0  0  0  0
    7.8585  -11.1921    0.0000 C   0  0  0  0  0  0  0  0  0  0  0  0
    7.1418   -9.9504    0.0000 C   0  0  0  0  0  0  0  0  0  0  0  0
    7.8502   -7.8877    0.0000 C   0  0  0  0  0  0  0  0  0  0  0  0
    9.2795   -7.8877    0.0000 C   0  0  0  0  0  0  0  0  0  0  0  0
    8.5669   -6.6501    0.0000 O   0  0  0  0  0  0  0  0  0  0  0  0
    8.5669   -7.4752    0.0000 C   0  0  0  0  0  0  0  0  0  0  0  0
    9.2795   -6.2376    0.0000 C   0  0  0  0  0  0  0  0  0  0  0  0
   10.7087   -5.4125    0.0000 C   0  0  0  0  0  0  0  0  0  0  0  0
   11.4213   -5.0000    0.0000 F   0  0  0  0  0  0  0  0  0  0  0  0
    9.2878  -11.1796    0.0000 C   0  0  0  0  0  0  0  0  0  0  0  0
    9.2753   -5.4167    0.0000 C   0  0  0  0  0  0  0  0  0  0  0  0
    9.9920   -6.6501    0.0000 C   0  0  0  0  0  0  0  0  0  0  0  0
   10.7087   -6.2376    0.0000 C   0  0  0  0  0  0  0  0  0  0  0  0
    9.9878   -5.0000    0.0000 C   0  0  0  0  0  0  0  0  0  0  0  0
    9.9920   -9.9379    0.0000 C   0  0  0  0  0  0  0  0  0  0  0  0
   10.7171  -11.1713    0.0000 C   0  0  0  0  0  0  0  0  0  0  0  0
   10.7087  -10.3421    0.0000 C   0  0  0  0  0  0  0  0  0  0  0  0
  2  3  1  0  0  0  0
  3  6  1  0  0  0  0
  4  1  1  0  0  0  0
  5  3  1  0  0  0  0
  6 16  2  0  0  0  0
  7  2  1  0  0  0  0
  8  2  1  0  0  0  0
  9 24  1  0  0  0  0
 10  4  2  0  0  0  0
 11  4  1  0  0  0  0
 12  1  1  0  0  0  0
 13  1  1  0  0  0  0
 14  1  1  0  0  0  0
 15 11  2  0  0  0  0
 16 10  1  0  0  0  0
 17  7  1  0  0  0  0
 18  8  1  0  0  0  0
 19 20  1  0  0  0  0
 20 18  1  0  0  0  0
 21 19  1  0  0  0  0
 22 28  1  0  0  0  0
 23 22  1  0  0  0  0
 24  5  2  0  0  0  0
 25 21  1  0  0  0  0
 26 21  2  0  0  0  0
 27 26  1  0  0  0  0
 28 25  2  0  0  0  0
 29  5  1  0  0  0  0
 30 31  1  0  0  0  0
 31 29  2  0  0  0  0
  6 15  1  0  0  0  0
 17 20  1  0  0  0  0
 30  9  2  0  0  0  0
 22 27  2  0  0  0  0
M  END
> <Molecule Name>
DNDI1608216

> <CDD Number>
CDD-1535815

> <IC50_uM>
0.021 (n=1)

$$$$

SketchEl molfile

 31 34  0  0  0  0  0  0  0  0999 V2000
    5.7125  -11.6046    0.0000 C   0  0  0  0  0  0  0  0  0  0  0  0
    8.5669   -9.1211    0.0000 N   0  0  0  0  0  0  0  0  0  0  0  0
    8.5711   -9.9462    0.0000 C   0  0  0  0  0  0  0  0  0  0  0  0
    6.4293  -11.1921    0.0000 C   0  0  0  0  0  0  0  0  0  0  0  0
    9.2795   -6.2376    0.0000 C   0  0  0  0  0  0  0  0  0  0  0  0
    8.5669   -6.6501    0.0000 O   0  0  0  0  0  0  0  0  0  0  0  0
    9.2878  -10.3546    0.0000 C   0  0  0  0  0  0  0  0  0  0  0  0
    7.8585  -10.3629    0.0000 C   0  0  0  0  0  0  0  0  0  0  0  0
    7.8502   -8.7169    0.0000 C   0  0  0  0  0  0  0  0  0  0  0  0
    9.2795   -8.7086    0.0000 C   0  0  0  0  0  0  0  0  0  0  0  0
    9.2753   -5.4167    0.0000 C   0  0  0  0  0  0  0  0  0  0  0  0
   10.0003  -11.5880    0.0000 N   0  0  0  0  0  0  0  0  0  0  0  0
    7.1418  -11.6046    0.0000 C   0  0  0  0  0  0  0  0  0  0  0  0
    6.4293  -10.3629    0.0000 C   0  0  0  0  0  0  0  0  0  0  0  0
    5.0000  -11.1921    0.0000 F   0  0  0  0  0  0  0  0  0  0  0  0
    5.7125  -12.4297    0.0000 F   0  0  0  0  0  0  0  0  0  0  0  0
    5.5000  -10.8088    0.0000 F   0  0  0  0  0  0  0  0  0  0  0  0
    7.1418   -9.9504    0.0000 C   0  0  0  0  0  0  0  0  0  0  0  0
    7.8585  -11.1921    0.0000 C   0  0  0  0  0  0  0  0  0  0  0  0
    9.2795   -7.8877    0.0000 C   0  0  0  0  0  0  0  0  0  0  0  0
    7.8502   -7.8877    0.0000 C   0  0  0  0  0  0  0  0  0  0  0  0
    8.5669   -7.4752    0.0000 C   0  0  0  0  0  0  0  0  0  0  0  0
    8.5627   -5.0042    0.0000 Cl  0  0  0  0  0  0  0  0  0  0  0  0
    9.2878  -11.1796    0.0000 C   0  0  0  0  0  0  0  0  0  0  0  0
    9.9920   -9.9379    0.0000 C   0  0  0  0  0  0  0  0  0  0  0  0
    9.9920   -6.6501    0.0000 C   0  0  0  0  0  0  0  0  0  0  0  0
   10.7171  -11.1713    0.0000 C   0  0  0  0  0  0  0  0  0  0  0  0
    9.9878   -5.0000    0.0000 C   0  0  0  0  0  0  0  0  0  0  0  0
   10.7087  -10.3421    0.0000 C   0  0  0  0  0  0  0  0  0  0  0  0
   10.7087   -6.2376    0.0000 C   0  0  0  0  0  0  0  0  0  0  0  0
   10.7087   -5.4125    0.0000 C   0  0  0  0  0  0  0  0  0  0  0  0
  2  3  1  0  0  0  0
  3  8  1  0  0  0  0
  4  1  1  0  0  0  0
  5  6  1  0  0  0  0
  6 22  1  0  0  0  0
  7  3  1  0  0  0  0
  8 18  2  0  0  0  0
  9  2  1  0  0  0  0
 10  2  1  0  0  0  0
 11  5  1  0  0  0  0
 12 24  1  0  0  0  0
 13  4  1  0  0  0  0
 14  4  2  0  0  0  0
 15  1  1  0  0  0  0
 16  1  1  0  0  0  0
 17  1  1  0  0  0  0
 18 14  1  0  0  0  0
 19 13  2  0  0  0  0
 20 10  1  0  0  0  0
 21  9  1  0  0  0  0
 22 20  1  0  0  0  0
 23 11  1  0  0  0  0
 24  7  2  0  0  0  0
 25  7  1  0  0  0  0
 26  5  2  0  0  0  0
 27 29  1  0  0  0  0
 28 11  2  0  0  0  0
 29 25  2  0  0  0  0
 30 26  1  0  0  0  0
 31 28  1  0  0  0  0
  8 19  1  0  0  0  0
 21 22  1  0  0  0  0
 27 12  2  0  0  0  0
 31 30  2  0  0  0  0
M  END
> <Molecule Name>
DNDI1610383

> <CDD Number>
CDD-1535816

> <IC50_uM>
0.041 (n=1)

$$$$

SketchEl molfile

 31 34  0  0  0  0  0  0  0  0999 V2000
    5.7125  -11.6046    0.0000 C   0  0  0  0  0  0  0  0  0  0  0  0
    8.5669   -9.1211    0.0000 N   0  0  0  0  0  0  0  0  0  0  0  0
    8.5711   -9.9462    0.0000 C   0  0  0  0  0  0  0  0  0  0  0  0
    6.4293  -11.1921    0.0000 C   0  0  0  0  0  0  0  0  0  0  0  0
    9.2878  -10.3546    0.0000 C   0  0  0  0  0  0  0  0  0  0  0  0
    7.8585  -10.3629    0.0000 C   0  0  0  0  0  0  0  0  0  0  0  0
    7.8502   -8.7169    0.0000 C   0  0  0  0  0  0  0  0  0  0  0  0
    9.2795   -8.7086    0.0000 C   0  0  0  0  0  0  0  0  0  0  0  0
   10.0003  -11.5880    0.0000 N   0  0  0  0  0  0  0  0  0  0  0  0
    9.9920   -6.6501    0.0000 C   0  0  0  0  0  0  0  0  0  0  0  0
    9.2795   -6.2376    0.0000 C   0  0  0  0  0  0  0  0  0  0  0  0
    8.5669   -6.6501    0.0000 O   0  0  0  0  0  0  0  0  0  0  0  0
    7.1418  -11.6046    0.0000 C   0  0  0  0  0  0  0  0  0  0  0  0
    6.4293  -10.3629    0.0000 C   0  0  0  0  0  0  0  0  0  0  0  0
    5.0000  -11.1921    0.0000 F   0  0  0  0  0  0  0  0  0  0  0  0
    5.7125  -12.4297    0.0000 F   0  0  0  0  0  0  0  0  0  0  0  0
    5.5000  -10.8088    0.0000 F   0  0  0  0  0  0  0  0  0  0  0  0
    7.1418   -9.9504    0.0000 C   0  0  0  0  0  0  0  0  0  0  0  0
    7.8585  -11.1921    0.0000 C   0  0  0  0  0  0  0  0  0  0  0  0
    9.2795   -7.8877    0.0000 C   0  0  0  0  0  0  0  0  0  0  0  0
    7.8502   -7.8877    0.0000 C   0  0  0  0  0  0  0  0  0  0  0  0
    8.5669   -7.4752    0.0000 C   0  0  0  0  0  0  0  0  0  0  0  0
   10.7087   -6.2376    0.0000 C   0  0  0  0  0  0  0  0  0  0  0  0
   11.4213   -6.6501    0.0000 Cl  0  0  0  0  0  0  0  0  0  0  0  0
    9.2878  -11.1796    0.0000 C   0  0  0  0  0  0  0  0  0  0  0  0
    9.9878   -5.0000    0.0000 C   0  0  0  0  0  0  0  0  0  0  0  0
    9.9920   -9.9379    0.0000 C   0  0  0  0  0  0  0  0  0  0  0  0
   10.7171  -11.1713    0.0000 C   0  0  0  0  0  0  0  0  0  0  0  0
    9.2753   -5.4167    0.0000 C   0  0  0  0  0  0  0  0  0  0  0  0
   10.7087   -5.4125    0.0000 C   0  0  0  0  0  0  0  0  0  0  0  0
   10.7087  -10.3421    0.0000 C   0  0  0  0  0  0  0  0  0  0  0  0
  2  3  1  0  0  0  0
  3  6  1  0  0  0  0
  4  1  1  0  0  0  0
  5  3  1  0  0  0  0
  6 18  2  0  0  0  0
  7  2  1  0  0  0  0
  8  2  1  0  0  0  0
  9 25  1  0  0  0  0
 10 11  2  0  0  0  0
 11 12  1  0  0  0  0
 12 22  1  0  0  0  0
 13  4  1  0  0  0  0
 14  4  2  0  0  0  0
 15  1  1  0  0  0  0
 16  1  1  0  0  0  0
 17  1  1  0  0  0  0
 18 14  1  0  0  0  0
 19 13  2  0  0  0  0
 20  8  1  0  0  0  0
 21  7  1  0  0  0  0
 22 20  1  0  0  0  0
 23 10  1  0  0  0  0
 24 23  1  0  0  0  0
 25  5  2  0  0  0  0
 26 29  2  0  0  0  0
 27  5  1  0  0  0  0
 28 31  1  0  0  0  0
 29 11  1  0  0  0  0
 30 26  1  0  0  0  0
 31 27  2  0  0  0  0
  6 19  1  0  0  0  0
 21 22  1  0  0  0  0
 28  9  2  0  0  0  0
 30 23  2  0  0  0  0
M  END
> <Molecule Name>
DNDI1610384

> <CDD Number>
CDD-1535817

> <IC50_uM>
0.059 (n=1)

$$$$

SketchEl molfile

 31 34  0  0  0  0  0  0  0  0999 V2000
    5.7125  -11.6046    0.0000 C   0  0  0  0  0  0  0  0  0  0  0  0
    8.5669   -9.1211    0.0000 N   0  0  0  0  0  0  0  0  0  0  0  0
    8.5711   -9.9462    0.0000 C   0  0  0  0  0  0  0  0  0  0  0  0
    6.4293  -11.1921    0.0000 C   0  0  0  0  0  0  0  0  0  0  0  0
    9.2795   -6.2376    0.0000 C   0  0  0  0  0  0  0  0  0  0  0  0
    8.5669   -6.6501    0.0000 O   0  0  0  0  0  0  0  0  0  0  0  0
    9.2878  -10.3546    0.0000 C   0  0  0  0  0  0  0  0  0  0  0  0
    7.8585  -10.3629    0.0000 C   0  0  0  0  0  0  0  0  0  0  0  0
    7.8502   -8.7169    0.0000 C   0  0  0  0  0  0  0  0  0  0  0  0
    9.2795   -8.7086    0.0000 C   0  0  0  0  0  0  0  0  0  0  0  0
    9.2753   -5.4167    0.0000 C   0  0  0  0  0  0  0  0  0  0  0  0
   10.0003  -11.5880    0.0000 N   0  0  0  0  0  0  0  0  0  0  0  0
    7.1418  -11.6046    0.0000 C   0  0  0  0  0  0  0  0  0  0  0  0
    6.4293  -10.3629    0.0000 C   0  0  0  0  0  0  0  0  0  0  0  0
    5.0000  -11.1921    0.0000 F   0  0  0  0  0  0  0  0  0  0  0  0
    5.7125  -12.4297    0.0000 F   0  0  0  0  0  0  0  0  0  0  0  0
    5.5000  -10.8088    0.0000 F   0  0  0  0  0  0  0  0  0  0  0  0
    7.1418   -9.9504    0.0000 C   0  0  0  0  0  0  0  0  0  0  0  0
    7.8585  -11.1921    0.0000 C   0  0  0  0  0  0  0  0  0  0  0  0
    9.2795   -7.8877    0.0000 C   0  0  0  0  0  0  0  0  0  0  0  0
    7.8502   -7.8877    0.0000 C   0  0  0  0  0  0  0  0  0  0  0  0
    8.5669   -7.4752    0.0000 C   0  0  0  0  0  0  0  0  0  0  0  0
    8.5627   -5.0042    0.0000 F   0  0  0  0  0  0  0  0  0  0  0  0
    9.2878  -11.1796    0.0000 C   0  0  0  0  0  0  0  0  0  0  0  0
    9.9920   -9.9379    0.0000 C   0  0  0  0  0  0  0  0  0  0  0  0
    9.9920   -6.6501    0.0000 C   0  0  0  0  0  0  0  0  0  0  0  0
   10.7171  -11.1713    0.0000 C   0  0  0  0  0  0  0  0  0  0  0  0
    9.9878   -5.0000    0.0000 C   0  0  0  0  0  0  0  0  0  0  0  0
   10.7087  -10.3421    0.0000 C   0  0  0  0  0  0  0  0  0  0  0  0
   10.7087   -6.2376    0.0000 C   0  0  0  0  0  0  0  0  0  0  0  0
   10.7087   -5.4125    0.0000 C   0  0  0  0  0  0  0  0  0  0  0  0
  2  3  1  0  0  0  0
  3  8  1  0  0  0  0
  4  1  1  0  0  0  0
  5  6  1  0  0  0  0
  6 22  1  0  0  0  0
  7  3  1  0  0  0  0
  8 18  2  0  0  0  0
  9  2  1  0  0  0  0
 10  2  1  0  0  0  0
 11  5  1  0  0  0  0
 12 24  1  0  0  0  0
 13  4  1  0  0  0  0
 14  4  2  0  0  0  0
 15  1  1  0  0  0  0
 16  1  1  0  0  0  0
 17  1  1  0  0  0  0
 18 14  1  0  0  0  0
 19 13  2  0  0  0  0
 20 10  1  0  0  0  0
 21  9  1  0  0  0  0
 22 20  1  0  0  0  0
 23 11  1  0  0  0  0
 24  7  2  0  0  0  0
 25  7  1  0  0  0  0
 26  5  2  0  0  0  0
 27 29  1  0  0  0  0
 28 11  2  0  0  0  0
 29 25  2  0  0  0  0
 30 26  1  0  0  0  0
 31 28  1  0  0  0  0
  8 19  1  0  0  0  0
 21 22  1  0  0  0  0
 27 12  2  0  0  0  0
 31 30  2  0  0  0  0
M  END
> <Molecule Name>
DNDI1610385

> <CDD Number>
CDD-1535818

> <IC50_uM>
0.062 (n=1)

$$$$

SketchEl molfile

 31 33  0  0  0  0  0  0  0  0999 V2000
   11.4203   -5.8291    0.0000 C   0  0  0  0  0  0  0  0  0  0  0  0
   10.7079   -6.2416    0.0000 N   0  0  0  0  0  0  0  0  0  0  0  0
    5.7124   -9.9622    0.0000 C   0  0  0  0  0  0  0  0  0  0  0  0
    8.5706   -8.3040    0.0000 N   0  0  0  0  0  0  0  0  0  0  0  0
   12.1370   -6.2416    0.0000 O   0  0  0  0  0  0  0  0  0  0  0  0
    6.4291   -9.5497    0.0000 C   0  0  0  0  0  0  0  0  0  0  0  0
    7.8581   -8.7206    0.0000 C   0  0  0  0  0  0  0  0  0  0  0  0
   11.4203   -5.0042    0.0000 O   0  0  0  0  0  0  0  0  0  0  0  0
    8.5664   -7.4790    0.0000 C   0  0  0  0  0  0  0  0  0  0  0  0
   10.7037   -7.0666    0.0000 C   0  0  0  0  0  0  0  0  0  0  0  0
    9.9913   -5.8291    0.0000 C   0  0  0  0  0  0  0  0  0  0  0  0
    9.2872   -8.7123    0.0000 C   0  0  0  0  0  0  0  0  0  0  0  0
    9.9996   -9.9455    0.0000 N   0  0  0  0  0  0  0  0  0  0  0  0
   12.8494   -5.8250    0.0000 C   0  0  0  0  0  0  0  0  0  0  0  0
    7.1415   -9.9622    0.0000 C   0  0  0  0  0  0  0  0  0  0  0  0
    6.4291   -8.7206    0.0000 C   0  0  0  0  0  0  0  0  0  0  0  0
    7.8581   -9.5497    0.0000 C   0  0  0  0  0  0  0  0  0  0  0  0
    7.1415   -8.3081    0.0000 C   0  0  0  0  0  0  0  0  0  0  0  0
    5.0000   -9.5497    0.0000 F   0  0  0  0  0  0  0  0  0  0  0  0
    5.7124  -10.7871    0.0000 F   0  0  0  0  0  0  0  0  0  0  0  0
    5.5000   -9.1664    0.0000 F   0  0  0  0  0  0  0  0  0  0  0  0
    9.2788   -7.0624    0.0000 C   0  0  0  0  0  0  0  0  0  0  0  0
    9.9955   -7.4790    0.0000 C   0  0  0  0  0  0  0  0  0  0  0  0
    9.2747   -6.2416    0.0000 C   0  0  0  0  0  0  0  0  0  0  0  0
    9.2872   -9.5372    0.0000 C   0  0  0  0  0  0  0  0  0  0  0  0
   10.7162   -9.5289    0.0000 C   0  0  0  0  0  0  0  0  0  0  0  0
   12.0495   -5.6167    0.0000 C   0  0  0  0  0  0  0  0  0  0  0  0
   12.8411   -5.0000    0.0000 C   0  0  0  0  0  0  0  0  0  0  0  0
   13.5660   -6.2291    0.0000 C   0  0  0  0  0  0  0  0  0  0  0  0
    9.9913   -8.2956    0.0000 C   0  0  0  0  0  0  0  0  0  0  0  0
   10.7079   -8.6998    0.0000 C   0  0  0  0  0  0  0  0  0  0  0  0
  2  1  1  0  0  0  0
  3  6  1  0  0  0  0
  4  9  1  0  0  0  0
  5  1  1  0  0  0  0
  6 16  2  0  0  0  0
  7  4  1  0  0  0  0
  8  1  2  0  0  0  0
  9 22  1  0  0  0  0
 10  2  1  0  0  0  0
 11  2  1  0  0  0  0
 12  4  1  0  0  0  0
 13 25  1  0  0  0  0
 14  5  1  0  0  0  0
 15 17  2  0  0  0  0
 16 18  1  0  0  0  0
 17  7  1  0  0  0  0
 18  7  2  0  0  0  0
 19  3  1  0  0  0  0
 20  3  1  0  0  0  0
 21  3  1  0  0  0  0
 22 24  1  0  0  0  0
 23 10  1  0  0  0  0
 24 11  1  0  0  0  0
 25 12  2  0  0  0  0
 26 31  1  0  0  0  0
 27 14  1  0  0  0  0
 28 14  1  0  0  0  0
 29 14  1  0  0  0  0
 30 12  1  0  0  0  0
 31 30  2  0  0  0  0
 23 22  1  0  0  0  0
 15  6  1  0  0  0  0
 26 13  2  0  0  0  0
M  END
> <Molecule Name>
DNDI1610386

> <CDD Number>
CDD-1535819

> <IC50_uM>
0.028 (n=1)

$$$$

SketchEl molfile

 33 36  0  0  0  0  0  0  0  0999 V2000
   12.1387   -6.2377    0.0000 C   0  0  0  0  0  0  0  0  0  0  0  0
   11.4220   -5.8251    0.0000 C   0  0  0  0  0  0  0  0  0  0  0  0
   13.4390   -6.5169    0.0000 N   0  0  0  0  0  0  0  0  0  0  0  0
   10.7093   -6.2377    0.0000 N   0  0  0  0  0  0  0  0  0  0  0  0
    5.7126   -9.9592    0.0000 C   0  0  0  0  0  0  0  0  0  0  0  0
   12.2221   -7.0586    0.0000 C   0  0  0  0  0  0  0  0  0  0  0  0
   13.0264   -7.2295    0.0000 O   0  0  0  0  0  0  0  0  0  0  0  0
   12.8889   -5.9001    0.0000 C   0  0  0  0  0  0  0  0  0  0  0  0
    8.5715   -8.3005    0.0000 N   0  0  0  0  0  0  0  0  0  0  0  0
    6.4294   -9.5466    0.0000 C   0  0  0  0  0  0  0  0  0  0  0  0
    7.8588   -8.7173    0.0000 C   0  0  0  0  0  0  0  0  0  0  0  0
   11.4220   -5.0000    0.0000 O   0  0  0  0  0  0  0  0  0  0  0  0
    8.5673   -7.4754    0.0000 C   0  0  0  0  0  0  0  0  0  0  0  0
   10.7052   -7.0628    0.0000 C   0  0  0  0  0  0  0  0  0  0  0  0
    9.9925   -5.8251    0.0000 C   0  0  0  0  0  0  0  0  0  0  0  0
    9.2883   -8.7089    0.0000 C   0  0  0  0  0  0  0  0  0  0  0  0
   10.0009   -9.9425    0.0000 N   0  0  0  0  0  0  0  0  0  0  0  0
    6.4294   -8.7173    0.0000 C   0  0  0  0  0  0  0  0  0  0  0  0
    7.1420   -9.9592    0.0000 C   0  0  0  0  0  0  0  0  0  0  0  0
    7.1420   -8.3047    0.0000 C   0  0  0  0  0  0  0  0  0  0  0  0
    7.8588   -9.5466    0.0000 C   0  0  0  0  0  0  0  0  0  0  0  0
    5.0000   -9.5466    0.0000 F   0  0  0  0  0  0  0  0  0  0  0  0
    5.7126  -10.7843    0.0000 F   0  0  0  0  0  0  0  0  0  0  0  0
    5.5001   -9.1632    0.0000 F   0  0  0  0  0  0  0  0  0  0  0  0
    9.2799   -7.0586    0.0000 C   0  0  0  0  0  0  0  0  0  0  0  0
    9.2757   -6.2377    0.0000 C   0  0  0  0  0  0  0  0  0  0  0  0
    9.9967   -7.4754    0.0000 C   0  0  0  0  0  0  0  0  0  0  0  0
    9.2883   -9.5341    0.0000 C   0  0  0  0  0  0  0  0  0  0  0  0
   11.6053   -7.6087    0.0000 C   0  0  0  0  0  0  0  0  0  0  0  0
   13.0597   -5.0958    0.0000 C   0  0  0  0  0  0  0  0  0  0  0  0
   10.7177   -9.5257    0.0000 C   0  0  0  0  0  0  0  0  0  0  0  0
    9.9925   -8.2922    0.0000 C   0  0  0  0  0  0  0  0  0  0  0  0
   10.7093   -8.6964    0.0000 C   0  0  0  0  0  0  0  0  0  0  0  0
  2  1  1  0  0  0  0
  3  8  2  0  0  0  0
  4  2  1  0  0  0  0
  5 10  1  0  0  0  0
  6  1  2  0  0  0  0
  7  6  1  0  0  0  0
  8  1  1  0  0  0  0
  9 13  1  0  0  0  0
 10 18  2  0  0  0  0
 11  9  1  0  0  0  0
 12  2  2  0  0  0  0
 13 25  1  0  0  0  0
 14  4  1  0  0  0  0
 15  4  1  0  0  0  0
 16  9  1  0  0  0  0
 17 28  1  0  0  0  0
 18 20  1  0  0  0  0
 19 21  2  0  0  0  0
 20 11  2  0  0  0  0
 21 11  1  0  0  0  0
 22  5  1  0  0  0  0
 23  5  1  0  0  0  0
 24  5  1  0  0  0  0
 25 26  1  0  0  0  0
 26 15  1  0  0  0  0
 27 14  1  0  0  0  0
 28 16  2  0  0  0  0
 29  6  1  0  0  0  0
 30  8  1  0  0  0  0
 31 33  1  0  0  0  0
 32 16  1  0  0  0  0
 33 32  2  0  0  0  0
  3  7  1  0  0  0  0
 27 25  1  0  0  0  0
 19 10  1  0  0  0  0
 31 17  2  0  0  0  0
M  END
> <Molecule Name>
DNDI1610387

> <CDD Number>
CDD-1535820

> <IC50_uM>
0.086 (n=1)

$$$$

SketchEl molfile

 29 32  0  0  0  0  0  0  0  0999 V2000
   10.7058   -6.2336    0.0000 C   0  0  0  0  0  0  0  0  0  0  0  0
    9.9931   -6.6463    0.0000 N   0  0  0  0  0  0  0  0  0  0  0  0
   11.4143   -6.6504    0.0000 N   0  0  0  0  0  0  0  0  0  0  0  0
    7.8591   -8.7135    0.0000 C   0  0  0  0  0  0  0  0  0  0  0  0
   13.5566   -7.0672    0.0000 N   0  0  0  0  0  0  0  0  0  0  0  0
   10.6974   -5.4167    0.0000 N   0  0  0  0  0  0  0  0  0  0  0  0
    7.8550   -7.8883    0.0000 N   0  0  0  0  0  0  0  0  0  0  0  0
   12.8439   -6.6546    0.0000 C   0  0  0  0  0  0  0  0  0  0  0  0
    8.5760   -9.1220    0.0000 C   0  0  0  0  0  0  0  0  0  0  0  0
    7.1464   -9.1303    0.0000 C   0  0  0  0  0  0  0  0  0  0  0  0
    9.2762   -6.2378    0.0000 C   0  0  0  0  0  0  0  0  0  0  0  0
    9.9889   -7.4757    0.0000 C   0  0  0  0  0  0  0  0  0  0  0  0
   12.1312   -6.2378    0.0000 C   0  0  0  0  0  0  0  0  0  0  0  0
    9.2887  -10.3556    0.0000 N   0  0  0  0  0  0  0  0  0  0  0  0
    9.2804   -7.8841    0.0000 C   0  0  0  0  0  0  0  0  0  0  0  0
    8.5593   -6.6504    0.0000 C   0  0  0  0  0  0  0  0  0  0  0  0
    8.5677   -7.4715    0.0000 C   0  0  0  0  0  0  0  0  0  0  0  0
    7.1464   -9.9597    0.0000 C   0  0  0  0  0  0  0  0  0  0  0  0
    6.4296   -8.7177    0.0000 C   0  0  0  0  0  0  0  0  0  0  0  0
   11.4101   -5.0000    0.0000 C   0  0  0  0  0  0  0  0  0  0  0  0
    5.7169   -9.9597    0.0000 C   0  0  0  0  0  0  0  0  0  0  0  0
   12.1312   -5.4126    0.0000 C   0  0  0  0  0  0  0  0  0  0  0  0
    6.4296  -10.3723    0.0000 C   0  0  0  0  0  0  0  0  0  0  0  0
    5.7169   -9.1303    0.0000 C   0  0  0  0  0  0  0  0  0  0  0  0
    8.5760   -9.9472    0.0000 C   0  0  0  0  0  0  0  0  0  0  0  0
    5.0000  -10.3723    0.0000 Cl  0  0  0  0  0  0  0  0  0  0  0  0
    9.2804   -8.7052    0.0000 C   0  0  0  0  0  0  0  0  0  0  0  0
   10.0056   -9.9388    0.0000 C   0  0  0  0  0  0  0  0  0  0  0  0
    9.9972   -9.1094    0.0000 C   0  0  0  0  0  0  0  0  0  0  0  0
  2  1  1  0  0  0  0
  3  1  2  0  0  0  0
  4  7  1  0  0  0  0
  5  8  3  0  0  0  0
  6  1  1  0  0  0  0
  7 17  1  0  0  0  0
  8 13  1  0  0  0  0
  9  4  1  0  0  0  0
 10  4  1  0  0  0  0
 11  2  1  0  0  0  0
 12  2  1  0  0  0  0
 13  3  1  0  0  0  0
 14 25  1  0  0  0  0
 15 12  1  0  0  0  0
 16 11  1  0  0  0  0
 17 16  1  0  0  0  0
 18 10  1  0  0  0  0
 19 10  2  0  0  0  0
 20  6  2  0  0  0  0
 21 24  2  0  0  0  0
 22 20  1  0  0  0  0
 23 18  2  0  0  0  0
 24 19  1  0  0  0  0
 25  9  2  0  0  0  0
 26 21  1  0  0  0  0
 27  9  1  0  0  0  0
 28 14  2  0  0  0  0
 29 27  2  0  0  0  0
 22 13  2  0  0  0  0
 15 17  1  0  0  0  0
 29 28  1  0  0  0  0
 23 21  1  0  0  0  0
M  END
> <Molecule Name>
DNDI1610441

> <CDD Number>
CDD-1535821

> <IC50_uM>
0.06 (n=1)

$$$$

SketchEl molfile

 28 31  0  0  0  0  0  0  0  0999 V2000
   10.7062   -5.9920    0.0000 C   0  0  0  0  0  0  0  0  0  0  0  0
   10.7896   -5.1709    0.0000 N   0  0  0  0  0  0  0  0  0  0  0  0
   11.4565   -6.3296    0.0000 S   0  0  0  0  0  0  0  0  0  0  0  0
    9.9935   -6.4047    0.0000 N   0  0  0  0  0  0  0  0  0  0  0  0
   12.0109   -5.7169    0.0000 C   0  0  0  0  0  0  0  0  0  0  0  0
    7.8594   -8.4721    0.0000 C   0  0  0  0  0  0  0  0  0  0  0  0
   11.5982   -5.0000    0.0000 C   0  0  0  0  0  0  0  0  0  0  0  0
   13.6239   -6.0087    0.0000 N   0  0  0  0  0  0  0  0  0  0  0  0
   12.8320   -5.8003    0.0000 C   0  0  0  0  0  0  0  0  0  0  0  0
    7.8552   -7.6468    0.0000 N   0  0  0  0  0  0  0  0  0  0  0  0
    8.5763   -8.8805    0.0000 C   0  0  0  0  0  0  0  0  0  0  0  0
    7.1466   -8.8889    0.0000 C   0  0  0  0  0  0  0  0  0  0  0  0
    9.2765   -5.9962    0.0000 C   0  0  0  0  0  0  0  0  0  0  0  0
    9.9893   -7.2341    0.0000 C   0  0  0  0  0  0  0  0  0  0  0  0
    9.2890  -10.1143    0.0000 N   0  0  0  0  0  0  0  0  0  0  0  0
    8.5596   -6.4088    0.0000 C   0  0  0  0  0  0  0  0  0  0  0  0
    9.2807   -7.6426    0.0000 C   0  0  0  0  0  0  0  0  0  0  0  0
    8.5680   -7.2300    0.0000 C   0  0  0  0  0  0  0  0  0  0  0  0
    6.4297   -8.4762    0.0000 C   0  0  0  0  0  0  0  0  0  0  0  0
    7.1466   -9.7184    0.0000 C   0  0  0  0  0  0  0  0  0  0  0  0
    5.7169   -9.7184    0.0000 C   0  0  0  0  0  0  0  0  0  0  0  0
    5.7169   -8.8931    0.0000 C   0  0  0  0  0  0  0  0  0  0  0  0
    6.4297  -10.1310    0.0000 C   0  0  0  0  0  0  0  0  0  0  0  0
    8.5763   -9.7058    0.0000 C   0  0  0  0  0  0  0  0  0  0  0  0
    5.0000  -10.1310    0.0000 Cl  0  0  0  0  0  0  0  0  0  0  0  0
    9.2807   -8.4637    0.0000 C   0  0  0  0  0  0  0  0  0  0  0  0
   10.0060   -9.6975    0.0000 C   0  0  0  0  0  0  0  0  0  0  0  0
    9.9976   -8.8680    0.0000 C   0  0  0  0  0  0  0  0  0  0  0  0
  2  1  2  0  0  0  0
  3  1  1  0  0  0  0
  4  1  1  0  0  0  0
  5  3  1  0  0  0  0
  6 10  1  0  0  0  0
  7  2  1  0  0  0  0
  8  9  3  0  0  0  0
  9  5  1  0  0  0  0
 10 18  1  0  0  0  0
 11  6  1  0  0  0  0
 12  6  1  0  0  0  0
 13  4  1  0  0  0  0
 14  4  1  0  0  0  0
 15 24  1  0  0  0  0
 16 13  1  0  0  0  0
 17 14  1  0  0  0  0
 18 16  1  0  0  0  0
 19 12  2  0  0  0  0
 20 12  1  0  0  0  0
 21 22  2  0  0  0  0
 22 19  1  0  0  0  0
 23 20  2  0  0  0  0
 24 11  2  0  0  0  0
 25 21  1  0  0  0  0
 26 11  1  0  0  0  0
 27 15  2  0  0  0  0
 28 26  2  0  0  0  0
  7  5  2  0  0  0  0
 17 18  1  0  0  0  0
 28 27  1  0  0  0  0
 23 21  1  0  0  0  0
M  END
> <Molecule Name>
DNDI1610442

> <CDD Number>
CDD-1535822

> <IC50_uM>
0.017 (n=1)

$$$$

SketchEl molfile

 28 31  0  0  0  0  0  0  0  0999 V2000
   10.7064   -6.2338    0.0000 C   0  0  0  0  0  0  0  0  0  0  0  0
    9.9936   -6.6465    0.0000 N   0  0  0  0  0  0  0  0  0  0  0  0
   11.4150   -6.6506    0.0000 N   0  0  0  0  0  0  0  0  0  0  0  0
   10.6980   -5.4168    0.0000 N   0  0  0  0  0  0  0  0  0  0  0  0
    7.8594   -8.7139    0.0000 C   0  0  0  0  0  0  0  0  0  0  0  0
    7.8553   -7.8886    0.0000 N   0  0  0  0  0  0  0  0  0  0  0  0
    8.5764   -9.1224    0.0000 C   0  0  0  0  0  0  0  0  0  0  0  0
    7.1467   -9.1308    0.0000 C   0  0  0  0  0  0  0  0  0  0  0  0
    9.2766   -6.2380    0.0000 C   0  0  0  0  0  0  0  0  0  0  0  0
    9.9894   -7.4760    0.0000 C   0  0  0  0  0  0  0  0  0  0  0  0
    9.2892  -10.3562    0.0000 N   0  0  0  0  0  0  0  0  0  0  0  0
   12.1319   -5.4127    0.0000 C   0  0  0  0  0  0  0  0  0  0  0  0
    9.2808   -7.8844    0.0000 C   0  0  0  0  0  0  0  0  0  0  0  0
    8.5597   -6.6506    0.0000 C   0  0  0  0  0  0  0  0  0  0  0  0
   11.4108   -5.0000    0.0000 C   0  0  0  0  0  0  0  0  0  0  0  0
   12.1319   -6.2380    0.0000 C   0  0  0  0  0  0  0  0  0  0  0  0
    8.5680   -7.4718    0.0000 C   0  0  0  0  0  0  0  0  0  0  0  0
    7.1467   -9.9602    0.0000 C   0  0  0  0  0  0  0  0  0  0  0  0
    6.4297   -8.7181    0.0000 C   0  0  0  0  0  0  0  0  0  0  0  0
    5.7169   -9.9602    0.0000 C   0  0  0  0  0  0  0  0  0  0  0  0
   12.8447   -5.0000    0.0000 F   0  0  0  0  0  0  0  0  0  0  0  0
    5.7169   -9.1349    0.0000 C   0  0  0  0  0  0  0  0  0  0  0  0
    6.4297  -10.3729    0.0000 C   0  0  0  0  0  0  0  0  0  0  0  0
    8.5764   -9.9477    0.0000 C   0  0  0  0  0  0  0  0  0  0  0  0
    5.0000  -10.3729    0.0000 Cl  0  0  0  0  0  0  0  0  0  0  0  0
    9.2808   -8.7056    0.0000 C   0  0  0  0  0  0  0  0  0  0  0  0
   10.0061   -9.9394    0.0000 C   0  0  0  0  0  0  0  0  0  0  0  0
    9.9978   -9.1099    0.0000 C   0  0  0  0  0  0  0  0  0  0  0  0
  2  1  1  0  0  0  0
  3  1  2  0  0  0  0
  4  1  1  0  0  0  0
  5  6  1  0  0  0  0
  6 17  1  0  0  0  0
  7  5  1  0  0  0  0
  8  5  1  0  0  0  0
  9  2  1  0  0  0  0
 10  2  1  0  0  0  0
 11 24  1  0  0  0  0
 12 15  1  0  0  0  0
 13 10  1  0  0  0  0
 14  9  1  0  0  0  0
 15  4  2  0  0  0  0
 16  3  1  0  0  0  0
 17 14  1  0  0  0  0
 18  8  1  0  0  0  0
 19  8  2  0  0  0  0
 20 22  2  0  0  0  0
 21 12  1  0  0  0  0
 22 19  1  0  0  0  0
 23 18  2  0  0  0  0
 24  7  2  0  0  0  0
 25 20  1  0  0  0  0
 26  7  1  0  0  0  0
 27 11  2  0  0  0  0
 28 26  2  0  0  0  0
 12 16  2  0  0  0  0
 13 17  1  0  0  0  0
 28 27  1  0  0  0  0
 23 20  1  0  0  0  0
M  END
> <Molecule Name>
DNDI1610443

> <CDD Number>
CDD-1535823

> <IC50_uM>
0.034 (n=1)

$$$$

SketchEl molfile

 19 20  0  0  0  0  0  0  0  0999 V2000
    6.8161   -8.5662    0.0000 C   0  0  0  0  0  0  0  0  0  0  0  0
    7.6416   -8.5662    0.0000 C   0  0  0  0  0  0  0  0  0  0  0  0
    7.8985   -7.7816    0.0000 C   0  0  0  0  0  0  0  0  0  0  0  0
    7.2288   -7.2946    0.0000 O   0  0  0  0  0  0  0  0  0  0  0  0
    6.5634   -7.7816    0.0000 C   0  0  0  0  0  0  0  0  0  0  0  0
    5.7782   -7.5268    0.0000 N   0  3  0  0  0  0  0  0  0  0  0  0
    5.6062   -6.7195    0.0000 O   0  5  0  0  0  0  0  0  0  0  0  0
    5.1650   -8.0795    0.0000 O   0  0  0  0  0  0  0  0  0  0  0  0
    8.6840   -7.5276    0.0000 C   0  0  0  0  0  0  0  0  0  0  0  0
    8.8567   -6.7204    0.0000 N   0  0  0  0  0  0  0  0  0  0  0  0
    9.6422   -6.4664    0.0000 N   0  0  0  0  0  0  0  0  0  0  0  0
   10.2505   -7.0235    0.0000 C   0  0  0  0  0  0  0  0  0  0  0  0
   11.0331   -6.7725    0.0000 C   0  0  0  0  0  0  0  0  0  0  0  0
   11.2101   -5.9658    0.0000 S   0  0  0  0  0  0  0  0  0  0  0  0
   10.5980   -5.4105    0.0000 C   0  0  0  0  0  0  0  0  0  0  0  0
    9.8089   -5.6618    0.0000 C   0  0  0  0  0  0  0  0  0  0  0  0
    9.1957   -5.1092    0.0000 C   0  0  0  0  0  0  0  0  0  0  0  0
   11.6148   -5.2475    0.0000 O   0  0  0  0  0  0  0  0  0  0  0  0
   12.0025   -6.1772    0.0000 O   0  0  0  0  0  0  0  0  0  0  0  0
  4  5  1  0  0  0  0
  9 10  2  0  0  0  0
  5  1  2  0  0  0  0
 10 11  1  0  0  0  0
 11 12  1  0  0  0  0
  1  2  1  0  0  0  0
  5  6  1  0  0  0  0
  6  7  1  0  0  0  0
  2  3  2  0  0  0  0
 11 16  1  0  0  0  0
 12 13  1  0  0  0  0
 13 14  1  0  0  0  0
 14 15  1  0  0  0  0
 15 16  1  0  0  0  0
  6  8  2  0  0  0  0
 16 17  1  0  0  0  0
  3  4  1  0  0  0  0
 14 18  2  0  0  0  0
  3  9  1  0  0  0  0
 14 19  2  0  0  0  0
M  CHG  2   6   1   7  -1
M  END
> <Molecule Name>
DNDI1613515

> <CDD Number>
CDD-977791

> <IC50_uM>
0.23 (n=1)

$$$$

SketchEl molfile

 31 34  0  0  0  0  0  0  0  0999 V2000
   12.8434   -5.8252    0.0000 C   0  0  0  0  0  0  0  0  0  0  0  0
    9.9927   -7.4714    0.0000 N   0  0  0  0  0  0  0  0  0  0  0  0
    7.8590   -9.5385    0.0000 C   0  0  0  0  0  0  0  0  0  0  0  0
    7.8548   -8.7133    0.0000 N   0  0  0  0  0  0  0  0  0  0  0  0
   12.1307   -6.2378    0.0000 C   0  0  0  0  0  0  0  0  0  0  0  0
   10.7054   -7.0588    0.0000 C   0  0  0  0  0  0  0  0  0  0  0  0
    8.5758   -9.9469    0.0000 C   0  0  0  0  0  0  0  0  0  0  0  0
    7.1463   -9.9553    0.0000 C   0  0  0  0  0  0  0  0  0  0  0  0
    9.2759   -7.0630    0.0000 C   0  0  0  0  0  0  0  0  0  0  0  0
    9.9886   -8.3007    0.0000 C   0  0  0  0  0  0  0  0  0  0  0  0
    9.2884  -11.1805    0.0000 N   0  0  0  0  0  0  0  0  0  0  0  0
   11.4097   -5.8252    0.0000 C   0  0  0  0  0  0  0  0  0  0  0  0
   12.1307   -7.0630    0.0000 C   0  0  0  0  0  0  0  0  0  0  0  0
   10.6971   -6.2420    0.0000 C   0  0  0  0  0  0  0  0  0  0  0  0
   11.4139   -7.4756    0.0000 C   0  0  0  0  0  0  0  0  0  0  0  0
   13.5602   -6.2378    0.0000 F   0  0  0  0  0  0  0  0  0  0  0  0
   12.8434   -5.0000    0.0000 F   0  0  0  0  0  0  0  0  0  0  0  0
   13.0601   -6.6212    0.0000 F   0  0  0  0  0  0  0  0  0  0  0  0
    9.2801   -8.7092    0.0000 C   0  0  0  0  0  0  0  0  0  0  0  0
    8.5591   -7.4756    0.0000 C   0  0  0  0  0  0  0  0  0  0  0  0
    8.5674   -8.2966    0.0000 C   0  0  0  0  0  0  0  0  0  0  0  0
    7.1463  -10.7846    0.0000 C   0  0  0  0  0  0  0  0  0  0  0  0
    6.4295   -9.5427    0.0000 C   0  0  0  0  0  0  0  0  0  0  0  0
    5.7168  -10.7846    0.0000 C   0  0  0  0  0  0  0  0  0  0  0  0
    6.4295  -11.1972    0.0000 C   0  0  0  0  0  0  0  0  0  0  0  0
    5.7168   -9.9553    0.0000 C   0  0  0  0  0  0  0  0  0  0  0  0
    8.5758  -10.7721    0.0000 C   0  0  0  0  0  0  0  0  0  0  0  0
    5.0000  -11.1972    0.0000 Cl  0  0  0  0  0  0  0  0  0  0  0  0
    9.2801   -9.5302    0.0000 C   0  0  0  0  0  0  0  0  0  0  0  0
   10.0053  -10.7638    0.0000 C   0  0  0  0  0  0  0  0  0  0  0  0
    9.9969   -9.9344    0.0000 C   0  0  0  0  0  0  0  0  0  0  0  0
  2  6  1  0  0  0  0
  3  4  1  0  0  0  0
  4 21  1  0  0  0  0
  5  1  1  0  0  0  0
  6 14  1  0  0  0  0
  7  3  1  0  0  0  0
  8  3  1  0  0  0  0
  9  2  1  0  0  0  0
 10  2  1  0  0  0  0
 11 27  1  0  0  0  0
 12  5  1  0  0  0  0
 13  5  2  0  0  0  0
 14 12  2  0  0  0  0
 15 13  1  0  0  0  0
 16  1  1  0  0  0  0
 17  1  1  0  0  0  0
 18  1  1  0  0  0  0
 19 10  1  0  0  0  0
 20  9  1  0  0  0  0
 21 20  1  0  0  0  0
 22  8  1  0  0  0  0
 23  8  2  0  0  0  0
 24 26  2  0  0  0  0
 25 22  2  0  0  0  0
 26 23  1  0  0  0  0
 27  7  2  0  0  0  0
 28 24  1  0  0  0  0
 29  7  1  0  0  0  0
 30 11  2  0  0  0  0
 31 29  2  0  0  0  0
 15  6  2  0  0  0  0
 19 21  1  0  0  0  0
 25 24  1  0  0  0  0
 31 30  1  0  0  0  0
M  END
> <Molecule Name>
DNDI1613516

> <CDD Number>
CDD-1535824

> <IC50_uM>
0.011 (n=1)

$$$$

SketchEl molfile

 32 35  0  0  0  0  0  0  0  0999 V2000
   11.4208   -5.8172    0.0000 C   0  0  0  0  0  0  0  0  0  0  0  0
    5.7130   -9.9574    0.0000 C   0  0  0  0  0  0  0  0  0  0  0  0
   10.7078   -6.2300    0.0000 N   0  0  0  0  0  0  0  0  0  0  0  0
    8.5731   -8.2980    0.0000 N   0  0  0  0  0  0  0  0  0  0  0  0
    6.4301   -9.5446    0.0000 C   0  0  0  0  0  0  0  0  0  0  0  0
    7.8602   -8.7149    0.0000 C   0  0  0  0  0  0  0  0  0  0  0  0
    8.5689   -7.4725    0.0000 C   0  0  0  0  0  0  0  0  0  0  0  0
   11.4124   -5.0000    0.0000 O   0  0  0  0  0  0  0  0  0  0  0  0
   12.1379   -6.2300    0.0000 C   0  0  0  0  0  0  0  0  0  0  0  0
    9.2902   -8.7066    0.0000 C   0  0  0  0  0  0  0  0  0  0  0  0
   10.7036   -7.0597    0.0000 C   0  0  0  0  0  0  0  0  0  0  0  0
    9.9907   -5.8214    0.0000 C   0  0  0  0  0  0  0  0  0  0  0  0
   10.0032   -9.9407    0.0000 N   0  0  0  0  0  0  0  0  0  0  0  0
    6.4301   -8.7191    0.0000 C   0  0  0  0  0  0  0  0  0  0  0  0
    7.1430   -9.9574    0.0000 C   0  0  0  0  0  0  0  0  0  0  0  0
    7.1430   -8.3021    0.0000 C   0  0  0  0  0  0  0  0  0  0  0  0
    7.8602   -9.5446    0.0000 C   0  0  0  0  0  0  0  0  0  0  0  0
    5.7130  -10.7829    0.0000 F   0  0  0  0  0  0  0  0  0  0  0  0
    5.5003   -9.1610    0.0000 F   0  0  0  0  0  0  0  0  0  0  0  0
    5.0000   -9.5446    0.0000 F   0  0  0  0  0  0  0  0  0  0  0  0
    9.2819   -7.0555    0.0000 C   0  0  0  0  0  0  0  0  0  0  0  0
    9.2736   -6.2342    0.0000 C   0  0  0  0  0  0  0  0  0  0  0  0
    9.9949   -7.4683    0.0000 C   0  0  0  0  0  0  0  0  0  0  0  0
    9.2902   -9.5321    0.0000 C   0  0  0  0  0  0  0  0  0  0  0  0
   10.7203   -9.5238    0.0000 C   0  0  0  0  0  0  0  0  0  0  0  0
   12.1379   -7.0555    0.0000 C   0  0  0  0  0  0  0  0  0  0  0  0
   12.8425   -5.8131    0.0000 C   0  0  0  0  0  0  0  0  0  0  0  0
    9.9949   -8.2896    0.0000 C   0  0  0  0  0  0  0  0  0  0  0  0
   10.7120   -8.6941    0.0000 C   0  0  0  0  0  0  0  0  0  0  0  0
   13.5596   -6.2175    0.0000 C   0  0  0  0  0  0  0  0  0  0  0  0
   12.8508   -7.4641    0.0000 C   0  0  0  0  0  0  0  0  0  0  0  0
   13.5680   -7.0472    0.0000 C   0  0  0  0  0  0  0  0  0  0  0  0
  2  5  1  0  0  0  0
  3  1  1  0  0  0  0
  4  7  1  0  0  0  0
  5 14  2  0  0  0  0
  6  4  1  0  0  0  0
  7 21  1  0  0  0  0
  8  1  2  0  0  0  0
  9  1  1  0  0  0  0
 10  4  1  0  0  0  0
 11  3  1  0  0  0  0
 12  3  1  0  0  0  0
 13 24  1  0  0  0  0
 14 16  1  0  0  0  0
 15 17  2  0  0  0  0
 16  6  2  0  0  0  0
 17  6  1  0  0  0  0
 18  2  1  0  0  0  0
 19  2  1  0  0  0  0
 20  2  1  0  0  0  0
 21 22  1  0  0  0  0
 22 12  1  0  0  0  0
 23 11  1  0  0  0  0
 24 10  2  0  0  0  0
 25 29  1  0  0  0  0
 26  9  2  0  0  0  0
 27  9  1  0  0  0  0
 28 10  1  0  0  0  0
 29 28  2  0  0  0  0
 30 27  2  0  0  0  0
 31 26  1  0  0  0  0
 32 30  1  0  0  0  0
 23 21  1  0  0  0  0
 32 31  2  0  0  0  0
 15  5  1  0  0  0  0
 25 13  2  0  0  0  0
M  END
> <Molecule Name>
DNDI1613517

> <CDD Number>
CDD-1535825

> <IC50_uM>
0.043 (n=1)

$$$$

SketchEl molfile

 31 34  0  0  0  0  0  0  0  0999 V2000
    5.7128  -10.3729    0.0000 C   0  0  0  0  0  0  0  0  0  0  0  0
   10.7064   -6.6465    0.0000 N   0  0  0  0  0  0  0  0  0  0  0  0
    8.5722   -8.7139    0.0000 N   0  0  0  0  0  0  0  0  0  0  0  0
    6.4297   -9.9602    0.0000 C   0  0  0  0  0  0  0  0  0  0  0  0
   11.4191   -6.2338    0.0000 C   0  0  0  0  0  0  0  0  0  0  0  0
    7.8594   -9.1307    0.0000 C   0  0  0  0  0  0  0  0  0  0  0  0
    8.5680   -7.8886    0.0000 C   0  0  0  0  0  0  0  0  0  0  0  0
    9.2891   -9.1224    0.0000 C   0  0  0  0  0  0  0  0  0  0  0  0
   10.7022   -7.4759    0.0000 C   0  0  0  0  0  0  0  0  0  0  0  0
    9.9894   -6.2380    0.0000 C   0  0  0  0  0  0  0  0  0  0  0  0
   10.0019  -10.3562    0.0000 N   0  0  0  0  0  0  0  0  0  0  0  0
    6.4297   -9.1307    0.0000 C   0  0  0  0  0  0  0  0  0  0  0  0
    7.1425  -10.3729    0.0000 C   0  0  0  0  0  0  0  0  0  0  0  0
    7.1425   -8.7181    0.0000 C   0  0  0  0  0  0  0  0  0  0  0  0
    7.8594   -9.9602    0.0000 C   0  0  0  0  0  0  0  0  0  0  0  0
    5.7128  -11.1982    0.0000 F   0  0  0  0  0  0  0  0  0  0  0  0
    5.5002   -9.5767    0.0000 F   0  0  0  0  0  0  0  0  0  0  0  0
    5.0000   -9.9602    0.0000 F   0  0  0  0  0  0  0  0  0  0  0  0
   12.1277   -6.6506    0.0000 C   0  0  0  0  0  0  0  0  0  0  0  0
   11.4108   -5.4168    0.0000 C   0  0  0  0  0  0  0  0  0  0  0  0
   12.8447   -5.4126    0.0000 C   0  0  0  0  0  0  0  0  0  0  0  0
    9.2808   -7.4718    0.0000 C   0  0  0  0  0  0  0  0  0  0  0  0
   12.1236   -5.0000    0.0000 C   0  0  0  0  0  0  0  0  0  0  0  0
   12.8447   -6.2380    0.0000 C   0  0  0  0  0  0  0  0  0  0  0  0
    9.9936   -7.8844    0.0000 C   0  0  0  0  0  0  0  0  0  0  0  0
    9.2725   -6.6506    0.0000 C   0  0  0  0  0  0  0  0  0  0  0  0
   13.5575   -5.0000    0.0000 Cl  0  0  0  0  0  0  0  0  0  0  0  0
    9.2891   -9.9477    0.0000 C   0  0  0  0  0  0  0  0  0  0  0  0
   10.7189   -9.9394    0.0000 C   0  0  0  0  0  0  0  0  0  0  0  0
    9.9936   -8.7056    0.0000 C   0  0  0  0  0  0  0  0  0  0  0  0
   10.7105   -9.1099    0.0000 C   0  0  0  0  0  0  0  0  0  0  0  0
  2 10  1  0  0  0  0
  3  6  1  0  0  0  0
  4  1  1  0  0  0  0
  5  2  1  0  0  0  0
  6 14  2  0  0  0  0
  7  3  1  0  0  0  0
  8  3  1  0  0  0  0
  9 25  1  0  0  0  0
 10 26  1  0  0  0  0
 11 28  1  0  0  0  0
 12  4  2  0  0  0  0
 13  4  1  0  0  0  0
 14 12  1  0  0  0  0
 15 13  2  0  0  0  0
 16  1  1  0  0  0  0
 17  1  1  0  0  0  0
 18  1  1  0  0  0  0
 19  5  2  0  0  0  0
 20  5  1  0  0  0  0
 21 23  1  0  0  0  0
 22  7  1  0  0  0  0
 23 20  2  0  0  0  0
 24 19  1  0  0  0  0
 25 22  1  0  0  0  0
 26 22  1  0  0  0  0
 27 21  1  0  0  0  0
 28  8  2  0  0  0  0
 29 11  2  0  0  0  0
 30  8  1  0  0  0  0
 31 30  2  0  0  0  0
  6 15  1  0  0  0  0
 31 29  1  0  0  0  0
  2  9  1  0  0  0  0
 21 24  2  0  0  0  0
M  END
> <Molecule Name>
DNDI1613518

> <CDD Number>
CDD-1535826

> <IC50_uM>
0.019 (n=1)

$$$$

SketchEl molfile

 32 35  0  0  0  0  0  0  0  0999 V2000
   12.1333   -6.2375    0.0000 C   0  0  0  0  0  0  0  0  0  0  0  0
   12.8458   -6.6500    0.0000 C   0  0  0  0  0  0  0  0  0  0  0  0
    9.9958   -6.6459    0.0000 N   0  0  0  0  0  0  0  0  0  0  0  0
   11.4208   -6.6500    0.0000 C   0  0  0  0  0  0  0  0  0  0  0  0
   10.7083   -6.2334    0.0000 C   0  0  0  0  0  0  0  0  0  0  0  0
    7.8583   -8.7084    0.0000 C   0  0  0  0  0  0  0  0  0  0  0  0
    7.8542   -7.8834    0.0000 N   0  0  0  0  0  0  0  0  0  0  0  0
   12.1333   -5.4125    0.0000 C   0  0  0  0  0  0  0  0  0  0  0  0
    8.5750   -9.1167    0.0000 C   0  0  0  0  0  0  0  0  0  0  0  0
    7.1458   -9.1250    0.0000 C   0  0  0  0  0  0  0  0  0  0  0  0
    9.2792   -6.2334    0.0000 C   0  0  0  0  0  0  0  0  0  0  0  0
    9.9917   -7.4709    0.0000 C   0  0  0  0  0  0  0  0  0  0  0  0
    9.2875  -10.3500    0.0000 N   0  0  0  0  0  0  0  0  0  0  0  0
   10.7042   -5.4125    0.0000 C   0  0  0  0  0  0  0  0  0  0  0  0
   13.5625   -6.2375    0.0000 F   0  0  0  0  0  0  0  0  0  0  0  0
   12.2625   -7.2334    0.0000 F   0  0  0  0  0  0  0  0  0  0  0  0
   12.8458   -7.4750    0.0000 F   0  0  0  0  0  0  0  0  0  0  0  0
   11.4125   -5.0000    0.0000 C   0  0  0  0  0  0  0  0  0  0  0  0
    8.5625   -6.6459    0.0000 C   0  0  0  0  0  0  0  0  0  0  0  0
    9.2833   -7.8834    0.0000 C   0  0  0  0  0  0  0  0  0  0  0  0
    8.5667   -7.4667    0.0000 C   0  0  0  0  0  0  0  0  0  0  0  0
    7.1458   -9.9542    0.0000 C   0  0  0  0  0  0  0  0  0  0  0  0
    6.4292   -8.7125    0.0000 C   0  0  0  0  0  0  0  0  0  0  0  0
    5.7167   -9.9542    0.0000 C   0  0  0  0  0  0  0  0  0  0  0  0
   12.8500   -5.0000    0.0000 F   0  0  0  0  0  0  0  0  0  0  0  0
    5.7167   -9.1250    0.0000 C   0  0  0  0  0  0  0  0  0  0  0  0
    6.4292  -10.3667    0.0000 C   0  0  0  0  0  0  0  0  0  0  0  0
    8.5750   -9.9417    0.0000 C   0  0  0  0  0  0  0  0  0  0  0  0
    5.0000  -10.3667    0.0000 Cl  0  0  0  0  0  0  0  0  0  0  0  0
    9.2792   -8.7000    0.0000 C   0  0  0  0  0  0  0  0  0  0  0  0
   10.0042   -9.9334    0.0000 C   0  0  0  0  0  0  0  0  0  0  0  0
    9.9958   -9.1042    0.0000 C   0  0  0  0  0  0  0  0  0  0  0  0
  2  1  1  0  0  0  0
  3  5  1  0  0  0  0
  4  1  1  0  0  0  0
  5  4  2  0  0  0  0
  6  7  1  0  0  0  0
  7 21  1  0  0  0  0
  8  1  2  0  0  0  0
  9  6  1  0  0  0  0
 10  6  1  0  0  0  0
 11  3  1  0  0  0  0
 12  3  1  0  0  0  0
 13 28  1  0  0  0  0
 14 18  2  0  0  0  0
 15  2  1  0  0  0  0
 16  2  1  0  0  0  0
 17  2  1  0  0  0  0
 18  8  1  0  0  0  0
 19 11  1  0  0  0  0
 20 12  1  0  0  0  0
 21 19  1  0  0  0  0
 22 10  1  0  0  0  0
 23 10  2  0  0  0  0
 24 26  2  0  0  0  0
 25  8  1  0  0  0  0
 26 23  1  0  0  0  0
 27 22  2  0  0  0  0
 28  9  2  0  0  0  0
 29 24  1  0  0  0  0
 30  9  1  0  0  0  0
 31 32  1  0  0  0  0
 32 30  2  0  0  0  0
  5 14  1  0  0  0  0
 20 21  1  0  0  0  0
 27 24  1  0  0  0  0
 31 13  2  0  0  0  0
M  END
> <Molecule Name>
DNDI1614384

> <CDD Number>
CDD-1535827

> <IC50_uM>
0.024 (n=1)

$$$$

SketchEl molfile

 33 36  0  0  0  0  0  0  0  0999 V2000
   11.4213   -6.6501    0.0000 C   0  0  0  0  0  0  0  0  0  0  0  0
   11.4171   -7.4751    0.0000 C   0  0  0  0  0  0  0  0  0  0  0  0
   10.7087   -6.2334    0.0000 C   0  0  0  0  0  0  0  0  0  0  0  0
    7.1460   -9.1252    0.0000 C   0  0  0  0  0  0  0  0  0  0  0  0
    7.8585   -8.7085    0.0000 C   0  0  0  0  0  0  0  0  0  0  0  0
    9.9962   -6.6459    0.0000 N   0  0  0  0  0  0  0  0  0  0  0  0
    6.4293   -8.7127    0.0000 C   0  0  0  0  0  0  0  0  0  0  0  0
    7.8544   -7.8835    0.0000 N   0  0  0  0  0  0  0  0  0  0  0  0
    7.1460   -9.9545    0.0000 C   0  0  0  0  0  0  0  0  0  0  0  0
    5.7167   -9.1294    0.0000 C   0  0  0  0  0  0  0  0  0  0  0  0
   12.1338   -6.2375    0.0000 C   0  0  0  0  0  0  0  0  0  0  0  0
   10.7046   -5.4125    0.0000 C   0  0  0  0  0  0  0  0  0  0  0  0
    8.5753   -9.1169    0.0000 C   0  0  0  0  0  0  0  0  0  0  0  0
    9.2795   -6.2334    0.0000 C   0  0  0  0  0  0  0  0  0  0  0  0
    9.9920   -7.4710    0.0000 C   0  0  0  0  0  0  0  0  0  0  0  0
    9.2878  -10.3503    0.0000 N   0  0  0  0  0  0  0  0  0  0  0  0
   10.7004   -7.8835    0.0000 F   0  0  0  0  0  0  0  0  0  0  0  0
   12.1297   -7.8918    0.0000 F   0  0  0  0  0  0  0  0  0  0  0  0
   10.6212   -7.2584    0.0000 F   0  0  0  0  0  0  0  0  0  0  0  0
    8.5628   -6.6459    0.0000 C   0  0  0  0  0  0  0  0  0  0  0  0
    9.2836   -7.8835    0.0000 C   0  0  0  0  0  0  0  0  0  0  0  0
    8.5669   -7.4668    0.0000 C   0  0  0  0  0  0  0  0  0  0  0  0
    5.7167   -9.9545    0.0000 C   0  0  0  0  0  0  0  0  0  0  0  0
    6.4251   -7.8877    0.0000 F   0  0  0  0  0  0  0  0  0  0  0  0
   12.1338   -5.4125    0.0000 C   0  0  0  0  0  0  0  0  0  0  0  0
    6.4293  -10.3670    0.0000 C   0  0  0  0  0  0  0  0  0  0  0  0
   11.4130   -5.0000    0.0000 C   0  0  0  0  0  0  0  0  0  0  0  0
    5.0000  -10.3670    0.0000 Cl  0  0  0  0  0  0  0  0  0  0  0  0
    8.5753   -9.9420    0.0000 C   0  0  0  0  0  0  0  0  0  0  0  0
   12.8506   -5.0000    0.0000 F   0  0  0  0  0  0  0  0  0  0  0  0
    9.2795   -8.7002    0.0000 C   0  0  0  0  0  0  0  0  0  0  0  0
   10.0045   -9.9336    0.0000 C   0  0  0  0  0  0  0  0  0  0  0  0
    9.9962   -9.1044    0.0000 C   0  0  0  0  0  0  0  0  0  0  0  0
  2  1  1  0  0  0  0
  3  1  2  0  0  0  0
  4  5  1  0  0  0  0
  5  8  1  0  0  0  0
  6  3  1  0  0  0  0
  7  4  2  0  0  0  0
  8 22  1  0  0  0  0
  9  4  1  0  0  0  0
 10  7  1  0  0  0  0
 11  1  1  0  0  0  0
 12  3  1  0  0  0  0
 13  5  1  0  0  0  0
 14  6  1  0  0  0  0
 15  6  1  0  0  0  0
 16 29  1  0  0  0  0
 17  2  1  0  0  0  0
 18  2  1  0  0  0  0
 19  2  1  0  0  0  0
 20 14  1  0  0  0  0
 21 15  1  0  0  0  0
 22 20  1  0  0  0  0
 23 10  2  0  0  0  0
 24  7  1  0  0  0  0
 25 11  2  0  0  0  0
 26  9  2  0  0  0  0
 27 25  1  0  0  0  0
 28 23  1  0  0  0  0
 29 13  2  0  0  0  0
 30 25  1  0  0  0  0
 31 13  1  0  0  0  0
 32 33  1  0  0  0  0
 33 31  2  0  0  0  0
 12 27  2  0  0  0  0
 21 22  1  0  0  0  0
 26 23  1  0  0  0  0
 32 16  2  0  0  0  0
M  END
> <Molecule Name>
DNDI1614385

> <CDD Number>
CDD-1535828

> <IC50_uM>
0.032 (n=1)

$$$$

SketchEl molfile

 31 34  0  0  0  0  0  0  0  0999 V2000
   12.8520   -5.8253    0.0000 C   0  0  0  0  0  0  0  0  0  0  0  0
    9.9971   -7.4715    0.0000 N   0  0  0  0  0  0  0  0  0  0  0  0
   12.1352   -6.2379    0.0000 C   0  0  0  0  0  0  0  0  0  0  0  0
   10.7098   -7.0589    0.0000 C   0  0  0  0  0  0  0  0  0  0  0  0
   10.7056   -6.2379    0.0000 N   0  0  0  0  0  0  0  0  0  0  0  0
    7.8591   -9.5345    0.0000 C   0  0  0  0  0  0  0  0  0  0  0  0
    7.8549   -8.7093    0.0000 N   0  0  0  0  0  0  0  0  0  0  0  0
   11.4142   -5.8253    0.0000 C   0  0  0  0  0  0  0  0  0  0  0  0
    8.5759   -9.9430    0.0000 C   0  0  0  0  0  0  0  0  0  0  0  0
    7.1464   -9.9513    0.0000 C   0  0  0  0  0  0  0  0  0  0  0  0
    9.2803   -7.0589    0.0000 C   0  0  0  0  0  0  0  0  0  0  0  0
    9.9930   -8.2967    0.0000 C   0  0  0  0  0  0  0  0  0  0  0  0
   12.1352   -7.0631    0.0000 C   0  0  0  0  0  0  0  0  0  0  0  0
   11.4225   -7.4757    0.0000 C   0  0  0  0  0  0  0  0  0  0  0  0
    9.2886  -11.1766    0.0000 N   0  0  0  0  0  0  0  0  0  0  0  0
   13.5647   -6.2337    0.0000 F   0  0  0  0  0  0  0  0  0  0  0  0
   12.8479   -5.0000    0.0000 F   0  0  0  0  0  0  0  0  0  0  0  0
   13.0646   -6.6213    0.0000 F   0  0  0  0  0  0  0  0  0  0  0  0
    8.5634   -7.4715    0.0000 C   0  0  0  0  0  0  0  0  0  0  0  0
    9.2844   -8.7093    0.0000 C   0  0  0  0  0  0  0  0  0  0  0  0
    8.5676   -8.2926    0.0000 C   0  0  0  0  0  0  0  0  0  0  0  0
    7.1464  -10.7807    0.0000 C   0  0  0  0  0  0  0  0  0  0  0  0
    6.4295   -9.5387    0.0000 C   0  0  0  0  0  0  0  0  0  0  0  0
    5.7169  -10.7807    0.0000 C   0  0  0  0  0  0  0  0  0  0  0  0
    6.4295  -11.1933    0.0000 C   0  0  0  0  0  0  0  0  0  0  0  0
    5.7169   -9.9555    0.0000 C   0  0  0  0  0  0  0  0  0  0  0  0
    8.5759  -10.7682    0.0000 C   0  0  0  0  0  0  0  0  0  0  0  0
    5.0000  -11.1933    0.0000 Cl  0  0  0  0  0  0  0  0  0  0  0  0
    9.2803   -9.5262    0.0000 C   0  0  0  0  0  0  0  0  0  0  0  0
   10.0055  -10.7599    0.0000 C   0  0  0  0  0  0  0  0  0  0  0  0
    9.9971   -9.9305    0.0000 C   0  0  0  0  0  0  0  0  0  0  0  0
  2  4  1  0  0  0  0
  3  1  1  0  0  0  0
  4  5  1  0  0  0  0
  5  8  2  0  0  0  0
  6  7  1  0  0  0  0
  7 21  1  0  0  0  0
  8  3  1  0  0  0  0
  9  6  1  0  0  0  0
 10  6  1  0  0  0  0
 11  2  1  0  0  0  0
 12  2  1  0  0  0  0
 13  3  2  0  0  0  0
 14 13  1  0  0  0  0
 15 27  1  0  0  0  0
 16  1  1  0  0  0  0
 17  1  1  0  0  0  0
 18  1  1  0  0  0  0
 19 11  1  0  0  0  0
 20 12  1  0  0  0  0
 21 19  1  0  0  0  0
 22 10  1  0  0  0  0
 23 10  2  0  0  0  0
 24 26  2  0  0  0  0
 25 22  2  0  0  0  0
 26 23  1  0  0  0  0
 27  9  2  0  0  0  0
 28 24  1  0  0  0  0
 29  9  1  0  0  0  0
 30 31  1  0  0  0  0
 31 29  2  0  0  0  0
 14  4  2  0  0  0  0
 20 21  1  0  0  0  0
 25 24  1  0  0  0  0
 30 15  2  0  0  0  0
M  END
> <Molecule Name>
DNDI1614386

> <CDD Number>
CDD-1535829

> <IC50_uM>
0.029563490998189 ร/รท 1.86866734154678 (n=2)

$$$$

SketchEl molfile

 29 32  0  0  0  0  0  0  0  0999 V2000
    5.7160   -9.1286    0.0000 C   0  0  0  0  0  0  0  0  0  0  0  0
    5.7149   -9.9561    0.0000 C   0  0  0  0  0  0  0  0  0  0  0  0
    6.4297  -10.3690    0.0000 C   0  0  0  0  0  0  0  0  0  0  0  0
    7.1463   -9.9556    0.0000 C   0  0  0  0  0  0  0  0  0  0  0  0
    7.1434   -9.1250    0.0000 C   0  0  0  0  0  0  0  0  0  0  0  0
    6.4279   -8.7158    0.0000 C   0  0  0  0  0  0  0  0  0  0  0  0
    7.8564   -8.7098    0.0000 C   0  0  0  0  0  0  0  0  0  0  0  0
    8.5725   -9.1196    0.0000 C   0  0  0  0  0  0  0  0  0  0  0  0
    7.8533   -7.8847    0.0000 N   0  0  0  0  0  0  0  0  0  0  0  0
    8.5663   -7.4695    0.0000 C   0  0  0  0  0  0  0  0  0  0  0  0
    9.2814   -7.8845    0.0000 C   0  0  0  0  0  0  0  0  0  0  0  0
    9.9923   -7.4727    0.0000 C   0  0  0  0  0  0  0  0  0  0  0  0
    9.9934   -6.6473    0.0000 N   0  0  0  0  0  0  0  0  0  0  0  0
    9.2775   -6.2353    0.0000 C   0  0  0  0  0  0  0  0  0  0  0  0
    8.5604   -6.6487    0.0000 C   0  0  0  0  0  0  0  0  0  0  0  0
    8.5722   -9.9423    0.0000 C   0  0  0  0  0  0  0  0  0  0  0  0
    9.2875  -10.3521    0.0000 N   0  0  0  0  0  0  0  0  0  0  0  0
   10.0014   -9.9368    0.0000 C   0  0  0  0  0  0  0  0  0  0  0  0
    9.9957   -9.1075    0.0000 C   0  0  0  0  0  0  0  0  0  0  0  0
    9.2798   -8.7015    0.0000 C   0  0  0  0  0  0  0  0  0  0  0  0
    5.0000  -10.3681    0.0000 Cl  0  0  0  0  0  0  0  0  0  0  0  0
   10.7080   -6.2348    0.0000 C   0  0  0  0  0  0  0  0  0  0  0  0
   11.4189   -6.6513    0.0000 C   0  0  0  0  0  0  0  0  0  0  0  0
   12.1329   -6.2395    0.0000 C   0  0  0  0  0  0  0  0  0  0  0  0
   12.1334   -5.4135    0.0000 C   0  0  0  0  0  0  0  0  0  0  0  0
   11.4138   -5.0011    0.0000 C   0  0  0  0  0  0  0  0  0  0  0  0
   10.7027   -5.4154    0.0000 C   0  0  0  0  0  0  0  0  0  0  0  0
   12.8474   -5.0000    0.0000 Cl  0  0  0  0  0  0  0  0  0  0  0  0
    9.9861   -5.0065    0.0000 F   0  0  0  0  0  0  0  0  0  0  0  0
  1  2  2  0  0  0  0
  2  3  1  0  0  0  0
  3  4  2  0  0  0  0
  4  5  1  0  0  0  0
  5  6  2  0  0  0  0
  6  1  1  0  0  0  0
  5  7  1  0  0  0  0
  7  8  1  0  0  0  0
  7  9  1  0  0  0  0
  9 10  1  0  0  0  0
 10 11  1  0  0  0  0
 10 15  1  0  0  0  0
 11 12  1  0  0  0  0
 12 13  1  0  0  0  0
 13 14  1  0  0  0  0
 14 15  1  0  0  0  0
  8 16  2  0  0  0  0
 16 17  1  0  0  0  0
 17 18  2  0  0  0  0
 18 19  1  0  0  0  0
 19 20  2  0  0  0  0
 20  8  1  0  0  0  0
  2 21  1  0  0  0  0
 13 22  1  0  0  0  0
 22 23  2  0  0  0  0
 23 24  1  0  0  0  0
 24 25  2  0  0  0  0
 25 26  1  0  0  0  0
 26 27  2  0  0  0  0
 27 22  1  0  0  0  0
 25 28  1  0  0  0  0
 27 29  1  0  0  0  0
M  END
> <Molecule Name>
DNDI1614387

> <CDD Number>
CDD-1535830

> <IC50_uM>
0.0198 (n=1)

$$$$

SketchEl molfile

 33 36  0  0  0  0  0  0  0  0999 V2000
    5.7160   -9.1286    0.0000 C   0  0  0  0  0  0  0  0  0  0  0  0
    5.7149   -9.9560    0.0000 C   0  0  0  0  0  0  0  0  0  0  0  0
    6.4297  -10.3689    0.0000 C   0  0  0  0  0  0  0  0  0  0  0  0
    7.1462   -9.9555    0.0000 C   0  0  0  0  0  0  0  0  0  0  0  0
    7.1434   -9.1249    0.0000 C   0  0  0  0  0  0  0  0  0  0  0  0
    6.4279   -8.7157    0.0000 C   0  0  0  0  0  0  0  0  0  0  0  0
    7.8564   -8.7097    0.0000 C   0  0  0  0  0  0  0  0  0  0  0  0
    8.5724   -9.1195    0.0000 C   0  0  0  0  0  0  0  0  0  0  0  0
    7.8532   -7.8846    0.0000 N   0  0  0  0  0  0  0  0  0  0  0  0
    8.5662   -7.4694    0.0000 C   0  0  0  0  0  0  0  0  0  0  0  0
    9.2814   -7.8844    0.0000 C   0  0  0  0  0  0  0  0  0  0  0  0
    9.9922   -7.4727    0.0000 C   0  0  0  0  0  0  0  0  0  0  0  0
    9.9934   -6.6472    0.0000 N   0  0  0  0  0  0  0  0  0  0  0  0
    9.2774   -6.2352    0.0000 C   0  0  0  0  0  0  0  0  0  0  0  0
    8.5603   -6.6486    0.0000 C   0  0  0  0  0  0  0  0  0  0  0  0
    8.5722   -9.9422    0.0000 C   0  0  0  0  0  0  0  0  0  0  0  0
    9.2874  -10.3520    0.0000 N   0  0  0  0  0  0  0  0  0  0  0  0
   10.0014   -9.9367    0.0000 C   0  0  0  0  0  0  0  0  0  0  0  0
    9.9956   -9.1074    0.0000 C   0  0  0  0  0  0  0  0  0  0  0  0
    9.2798   -8.7014    0.0000 C   0  0  0  0  0  0  0  0  0  0  0  0
    5.0000  -10.3680    0.0000 Cl  0  0  0  0  0  0  0  0  0  0  0  0
   10.7079   -6.2347    0.0000 C   0  0  0  0  0  0  0  0  0  0  0  0
   11.4188   -6.6513    0.0000 C   0  0  0  0  0  0  0  0  0  0  0  0
   12.1328   -6.2394    0.0000 C   0  0  0  0  0  0  0  0  0  0  0  0
   12.1333   -5.4135    0.0000 C   0  0  0  0  0  0  0  0  0  0  0  0
   11.4138   -5.0011    0.0000 C   0  0  0  0  0  0  0  0  0  0  0  0
   10.7026   -5.4153    0.0000 C   0  0  0  0  0  0  0  0  0  0  0  0
    6.4255   -7.8907    0.0000 F   0  0  0  0  0  0  0  0  0  0  0  0
   12.8472   -6.6523    0.0000 C   0  0  0  0  0  0  0  0  0  0  0  0
   12.8473   -5.0000    0.0000 F   0  0  0  0  0  0  0  0  0  0  0  0
   12.8468   -7.4774    0.0000 F   0  0  0  0  0  0  0  0  0  0  0  0
   13.5619   -6.2401    0.0000 F   0  0  0  0  0  0  0  0  0  0  0  0
   12.2635   -7.2355    0.0000 F   0  0  0  0  0  0  0  0  0  0  0  0
  1  2  2  0  0  0  0
  2  3  1  0  0  0  0
  3  4  2  0  0  0  0
  4  5  1  0  0  0  0
  5  6  2  0  0  0  0
  6  1  1  0  0  0  0
  5  7  1  0  0  0  0
  7  8  1  0  0  0  0
  7  9  1  0  0  0  0
  9 10  1  0  0  0  0
 10 11  1  0  0  0  0
 10 15  1  0  0  0  0
 11 12  1  0  0  0  0
 12 13  1  0  0  0  0
 13 14  1  0  0  0  0
 14 15  1  0  0  0  0
  8 16  2  0  0  0  0
 16 17  1  0  0  0  0
 17 18  2  0  0  0  0
 18 19  1  0  0  0  0
 19 20  2  0  0  0  0
 20  8  1  0  0  0  0
  2 21  1  0  0  0  0
 13 22  1  0  0  0  0
 22 23  2  0  0  0  0
 23 24  1  0  0  0  0
 24 25  2  0  0  0  0
 25 26  1  0  0  0  0
 26 27  2  0  0  0  0
 27 22  1  0  0  0  0
  6 28  1  0  0  0  0
 24 29  1  0  0  0  0
 25 30  1  0  0  0  0
 29 31  1  0  0  0  0
 29 32  1  0  0  0  0
 29 33  1  0  0  0  0
M  END
> <Molecule Name>
DNDI1614388

> <CDD Number>
CDD-1535831

> <IC50_uM>
0.0256 (n=1)

$$$$

SketchEl molfile

 30 33  0  0  0  0  0  0  0  0999 V2000
    5.7160   -9.1285    0.0000 C   0  0  0  0  0  0  0  0  0  0  0  0
    5.7149   -9.9560    0.0000 C   0  0  0  0  0  0  0  0  0  0  0  0
    6.4297  -10.3689    0.0000 C   0  0  0  0  0  0  0  0  0  0  0  0
    7.1463   -9.9555    0.0000 C   0  0  0  0  0  0  0  0  0  0  0  0
    7.1434   -9.1249    0.0000 C   0  0  0  0  0  0  0  0  0  0  0  0
    6.4279   -8.7157    0.0000 C   0  0  0  0  0  0  0  0  0  0  0  0
    7.8564   -8.7097    0.0000 C   0  0  0  0  0  0  0  0  0  0  0  0
    8.5725   -9.1195    0.0000 C   0  0  0  0  0  0  0  0  0  0  0  0
    7.8533   -7.8846    0.0000 N   0  0  0  0  0  0  0  0  0  0  0  0
    8.5663   -7.4694    0.0000 C   0  0  0  0  0  0  0  0  0  0  0  0
    9.2814   -7.8844    0.0000 C   0  0  0  0  0  0  0  0  0  0  0  0
    9.9923   -7.4726    0.0000 C   0  0  0  0  0  0  0  0  0  0  0  0
    9.9934   -6.6472    0.0000 N   0  0  0  0  0  0  0  0  0  0  0  0
    9.2775   -6.2352    0.0000 C   0  0  0  0  0  0  0  0  0  0  0  0
    8.5604   -6.6486    0.0000 C   0  0  0  0  0  0  0  0  0  0  0  0
    8.5722   -9.9422    0.0000 C   0  0  0  0  0  0  0  0  0  0  0  0
    9.2875  -10.3520    0.0000 N   0  0  0  0  0  0  0  0  0  0  0  0
   10.0014   -9.9367    0.0000 C   0  0  0  0  0  0  0  0  0  0  0  0
    9.9957   -9.1074    0.0000 C   0  0  0  0  0  0  0  0  0  0  0  0
    9.2798   -8.7014    0.0000 C   0  0  0  0  0  0  0  0  0  0  0  0
    5.0000  -10.3680    0.0000 Cl  0  0  0  0  0  0  0  0  0  0  0  0
   10.7079   -6.2347    0.0000 C   0  0  0  0  0  0  0  0  0  0  0  0
   11.4189   -6.6512    0.0000 C   0  0  0  0  0  0  0  0  0  0  0  0
   12.1329   -6.2394    0.0000 C   0  0  0  0  0  0  0  0  0  0  0  0
   12.1334   -5.4134    0.0000 C   0  0  0  0  0  0  0  0  0  0  0  0
   11.4138   -5.0011    0.0000 C   0  0  0  0  0  0  0  0  0  0  0  0
   10.7027   -5.4153    0.0000 C   0  0  0  0  0  0  0  0  0  0  0  0
    6.4255   -7.8907    0.0000 F   0  0  0  0  0  0  0  0  0  0  0  0
   12.8472   -6.6523    0.0000 Cl  0  0  0  0  0  0  0  0  0  0  0  0
   12.8474   -5.0000    0.0000 F   0  0  0  0  0  0  0  0  0  0  0  0
  1  2  2  0  0  0  0
  2  3  1  0  0  0  0
  3  4  2  0  0  0  0
  4  5  1  0  0  0  0
  5  6  2  0  0  0  0
  6  1  1  0  0  0  0
  5  7  1  0  0  0  0
  7  8  1  0  0  0  0
  7  9  1  0  0  0  0
  9 10  1  0  0  0  0
 10 11  1  0  0  0  0
 10 15  1  0  0  0  0
 11 12  1  0  0  0  0
 12 13  1  0  0  0  0
 13 14  1  0  0  0  0
 14 15  1  0  0  0  0
  8 16  2  0  0  0  0
 16 17  1  0  0  0  0
 17 18  2  0  0  0  0
 18 19  1  0  0  0  0
 19 20  2  0  0  0  0
 20  8  1  0  0  0  0
  2 21  1  0  0  0  0
 13 22  1  0  0  0  0
 22 23  2  0  0  0  0
 23 24  1  0  0  0  0
 24 25  2  0  0  0  0
 25 26  1  0  0  0  0
 26 27  2  0  0  0  0
 27 22  1  0  0  0  0
  6 28  1  0  0  0  0
 24 29  1  0  0  0  0
 25 30  1  0  0  0  0
M  END
> <Molecule Name>
DNDI1614389

> <CDD Number>
CDD-1535832

> <IC50_uM>
0.0285 (n=1)

$$$$

SketchEl molfile

 29 32  0  0  0  0  0  0  0  0999 V2000
    5.7161   -7.8999    0.0000 C   0  0  0  0  0  0  0  0  0  0  0  0
    5.7149   -8.7274    0.0000 C   0  0  0  0  0  0  0  0  0  0  0  0
    6.4298   -9.1403    0.0000 C   0  0  0  0  0  0  0  0  0  0  0  0
    7.1464   -8.7269    0.0000 C   0  0  0  0  0  0  0  0  0  0  0  0
    7.1435   -7.8962    0.0000 C   0  0  0  0  0  0  0  0  0  0  0  0
    6.4280   -7.4870    0.0000 C   0  0  0  0  0  0  0  0  0  0  0  0
    7.8565   -7.4810    0.0000 C   0  0  0  0  0  0  0  0  0  0  0  0
    8.5727   -7.8908    0.0000 C   0  0  0  0  0  0  0  0  0  0  0  0
    7.8534   -6.6559    0.0000 N   0  0  0  0  0  0  0  0  0  0  0  0
    8.5665   -6.2406    0.0000 C   0  0  0  0  0  0  0  0  0  0  0  0
    8.5724   -8.7136    0.0000 C   0  0  0  0  0  0  0  0  0  0  0  0
    9.2877   -9.1234    0.0000 N   0  0  0  0  0  0  0  0  0  0  0  0
   10.0017   -8.7081    0.0000 C   0  0  0  0  0  0  0  0  0  0  0  0
    9.9959   -7.8787    0.0000 C   0  0  0  0  0  0  0  0  0  0  0  0
    9.2801   -7.4727    0.0000 C   0  0  0  0  0  0  0  0  0  0  0  0
    9.2777   -6.6533    0.0000 C   0  0  0  0  0  0  0  0  0  0  0  0
    9.9886   -6.2416    0.0000 C   0  0  0  0  0  0  0  0  0  0  0  0
    9.9897   -5.4161    0.0000 N   0  0  0  0  0  0  0  0  0  0  0  0
    9.2738   -5.0041    0.0000 C   0  0  0  0  0  0  0  0  0  0  0  0
    8.5566   -5.4175    0.0000 C   0  0  0  0  0  0  0  0  0  0  0  0
   10.7043   -5.0036    0.0000 C   0  0  0  0  0  0  0  0  0  0  0  0
   11.4189   -5.4161    0.0000 C   0  0  0  0  0  0  0  0  0  0  0  0
   11.4156   -6.2382    0.0000 C   0  0  0  0  0  0  0  0  0  0  0  0
   12.1293   -6.6507    0.0000 C   0  0  0  0  0  0  0  0  0  0  0  0
   12.8449   -6.2381    0.0000 C   0  0  0  0  0  0  0  0  0  0  0  0
   12.8423   -5.4087    0.0000 C   0  0  0  0  0  0  0  0  0  0  0  0
   12.1279   -5.0000    0.0000 C   0  0  0  0  0  0  0  0  0  0  0  0
    5.0000   -9.1394    0.0000 Cl  0  0  0  0  0  0  0  0  0  0  0  0
   13.5600   -6.6497    0.0000 Cl  0  0  0  0  0  0  0  0  0  0  0  0
  1  2  2  0  0  0  0
  2  3  1  0  0  0  0
  3  4  2  0  0  0  0
  4  5  1  0  0  0  0
  5  6  2  0  0  0  0
  6  1  1  0  0  0  0
  5  7  1  0  0  0  0
  7  8  1  0  0  0  0
  7  9  1  0  0  0  0
  9 10  1  0  0  0  0
  8 11  2  0  0  0  0
 11 12  1  0  0  0  0
 12 13  2  0  0  0  0
 13 14  1  0  0  0  0
 14 15  2  0  0  0  0
 15  8  1  0  0  0  0
 10 16  1  0  0  0  0
 10 20  1  0  0  0  0
 16 17  1  0  0  0  0
 17 18  1  0  0  0  0
 18 19  1  0  0  0  0
 19 20  1  0  0  0  0
 18 21  1  0  0  0  0
 21 22  1  0  0  0  0
 22 23  2  0  0  0  0
 23 24  1  0  0  0  0
 24 25  2  0  0  0  0
 25 26  1  0  0  0  0
 26 27  2  0  0  0  0
 27 22  1  0  0  0  0
  2 28  1  0  0  0  0
 25 29  1  0  0  0  0
M  END
> <Molecule Name>
DNDI1625108

> <CDD Number>
CDD-1535833

> <IC50_uM>
0.066 (n=1)

$$$$

SketchEl molfile

 31 34  0  0  0  0  0  0  0  0999 V2000
    5.7161   -7.8999    0.0000 C   0  0  0  0  0  0  0  0  0  0  0  0
    5.7149   -8.7274    0.0000 C   0  0  0  0  0  0  0  0  0  0  0  0
    6.4298   -9.1403    0.0000 C   0  0  0  0  0  0  0  0  0  0  0  0
    7.1464   -8.7269    0.0000 C   0  0  0  0  0  0  0  0  0  0  0  0
    7.1435   -7.8962    0.0000 C   0  0  0  0  0  0  0  0  0  0  0  0
    6.4280   -7.4871    0.0000 C   0  0  0  0  0  0  0  0  0  0  0  0
    7.8565   -7.4810    0.0000 C   0  0  0  0  0  0  0  0  0  0  0  0
    8.5726   -7.8909    0.0000 C   0  0  0  0  0  0  0  0  0  0  0  0
    7.8534   -6.6559    0.0000 N   0  0  0  0  0  0  0  0  0  0  0  0
    8.5664   -6.2406    0.0000 C   0  0  0  0  0  0  0  0  0  0  0  0
    8.5724   -8.7136    0.0000 C   0  0  0  0  0  0  0  0  0  0  0  0
    9.2877   -9.1234    0.0000 N   0  0  0  0  0  0  0  0  0  0  0  0
   10.0017   -8.7081    0.0000 C   0  0  0  0  0  0  0  0  0  0  0  0
    9.9959   -7.8787    0.0000 C   0  0  0  0  0  0  0  0  0  0  0  0
    9.2800   -7.4727    0.0000 C   0  0  0  0  0  0  0  0  0  0  0  0
    9.2777   -6.6534    0.0000 C   0  0  0  0  0  0  0  0  0  0  0  0
    9.9885   -6.2416    0.0000 C   0  0  0  0  0  0  0  0  0  0  0  0
    9.9897   -5.4162    0.0000 N   0  0  0  0  0  0  0  0  0  0  0  0
    9.2737   -5.0041    0.0000 C   0  0  0  0  0  0  0  0  0  0  0  0
    8.5566   -5.4175    0.0000 C   0  0  0  0  0  0  0  0  0  0  0  0
   10.7043   -5.0036    0.0000 C   0  0  0  0  0  0  0  0  0  0  0  0
   11.4188   -5.4162    0.0000 C   0  0  0  0  0  0  0  0  0  0  0  0
   11.4155   -6.2383    0.0000 C   0  0  0  0  0  0  0  0  0  0  0  0
   12.1293   -6.6507    0.0000 C   0  0  0  0  0  0  0  0  0  0  0  0
   12.8448   -6.2381    0.0000 C   0  0  0  0  0  0  0  0  0  0  0  0
   12.8422   -5.4088    0.0000 C   0  0  0  0  0  0  0  0  0  0  0  0
   12.1279   -5.0000    0.0000 C   0  0  0  0  0  0  0  0  0  0  0  0
    5.0000   -9.1394    0.0000 Cl  0  0  0  0  0  0  0  0  0  0  0  0
   13.5599   -6.6498    0.0000 O   0  0  0  0  0  0  0  0  0  0  0  0
   13.5610   -7.4749    0.0000 C   0  0  0  0  0  0  0  0  0  0  0  0
    6.4255   -6.6619    0.0000 F   0  0  0  0  0  0  0  0  0  0  0  0
  1  2  2  0  0  0  0
  2  3  1  0  0  0  0
  3  4  2  0  0  0  0
  4  5  1  0  0  0  0
  5  6  2  0  0  0  0
  6  1  1  0  0  0  0
  5  7  1  0  0  0  0
  7  8  1  0  0  0  0
  7  9  1  0  0  0  0
  9 10  1  0  0  0  0
  8 11  2  0  0  0  0
 11 12  1  0  0  0  0
 12 13  2  0  0  0  0
 13 14  1  0  0  0  0
 14 15  2  0  0  0  0
 15  8  1  0  0  0  0
 10 16  1  0  0  0  0
 10 20  1  0  0  0  0
 16 17  1  0  0  0  0
 17 18  1  0  0  0  0
 18 19  1  0  0  0  0
 19 20  1  0  0  0  0
 18 21  1  0  0  0  0
 21 22  1  0  0  0  0
 22 23  2  0  0  0  0
 23 24  1  0  0  0  0
 24 25  2  0  0  0  0
 25 26  1  0  0  0  0
 26 27  2  0  0  0  0
 27 22  1  0  0  0  0
  2 28  1  0  0  0  0
 25 29  1  0  0  0  0
 29 30  1  0  0  0  0
  6 31  1  0  0  0  0
M  END
> <Molecule Name>
DNDI1625109

> <CDD Number>
CDD-1535834

> <IC50_uM>
0.37 (n=1)

$$$$

SketchEl molfile

 33 36  0  0  0  0  0  0  0  0999 V2000
    7.1418   -7.8877    0.0000 C   0  0  0  0  0  0  0  0  0  0  0  0
   13.5631   -6.6501    0.0000 C   0  0  0  0  0  0  0  0  0  0  0  0
    7.8544   -7.4751    0.0000 C   0  0  0  0  0  0  0  0  0  0  0  0
    6.4293   -7.4751    0.0000 C   0  0  0  0  0  0  0  0  0  0  0  0
    7.8544   -6.6501    0.0000 N   0  0  0  0  0  0  0  0  0  0  0  0
    9.9920   -5.4125    0.0000 N   0  0  0  0  0  0  0  0  0  0  0  0
    7.1418   -8.7211    0.0000 C   0  0  0  0  0  0  0  0  0  0  0  0
    5.7167   -7.8960    0.0000 C   0  0  0  0  0  0  0  0  0  0  0  0
   12.8506   -6.2376    0.0000 C   0  0  0  0  0  0  0  0  0  0  0  0
    8.5753   -7.8835    0.0000 C   0  0  0  0  0  0  0  0  0  0  0  0
    9.2878   -9.1128    0.0000 N   0  0  0  0  0  0  0  0  0  0  0  0
   13.5673   -7.4751    0.0000 F   0  0  0  0  0  0  0  0  0  0  0  0
   14.2799   -6.2334    0.0000 F   0  0  0  0  0  0  0  0  0  0  0  0
   12.9798   -7.2335    0.0000 F   0  0  0  0  0  0  0  0  0  0  0  0
    8.5669   -6.2334    0.0000 C   0  0  0  0  0  0  0  0  0  0  0  0
   10.7046   -5.0000    0.0000 C   0  0  0  0  0  0  0  0  0  0  0  0
   12.1297   -6.6501    0.0000 C   0  0  0  0  0  0  0  0  0  0  0  0
   12.8423   -5.4083    0.0000 C   0  0  0  0  0  0  0  0  0  0  0  0
    5.7167   -8.7211    0.0000 C   0  0  0  0  0  0  0  0  0  0  0  0
    9.2795   -6.6501    0.0000 C   0  0  0  0  0  0  0  0  0  0  0  0
    8.5628   -5.4125    0.0000 C   0  0  0  0  0  0  0  0  0  0  0  0
    9.2795   -5.0000    0.0000 C   0  0  0  0  0  0  0  0  0  0  0  0
    9.9920   -6.2376    0.0000 C   0  0  0  0  0  0  0  0  0  0  0  0
    6.4251   -6.6501    0.0000 F   0  0  0  0  0  0  0  0  0  0  0  0
    6.4293   -9.1336    0.0000 C   0  0  0  0  0  0  0  0  0  0  0  0
   11.4255   -5.4125    0.0000 C   0  0  0  0  0  0  0  0  0  0  0  0
   11.4171   -6.2376    0.0000 C   0  0  0  0  0  0  0  0  0  0  0  0
   12.1297   -5.0000    0.0000 C   0  0  0  0  0  0  0  0  0  0  0  0
    5.0000   -9.1336    0.0000 Cl  0  0  0  0  0  0  0  0  0  0  0  0
    8.5753   -8.7086    0.0000 C   0  0  0  0  0  0  0  0  0  0  0  0
    9.2795   -7.4626    0.0000 C   0  0  0  0  0  0  0  0  0  0  0  0
   10.0045   -8.7002    0.0000 C   0  0  0  0  0  0  0  0  0  0  0  0
    9.9920   -7.8710    0.0000 C   0  0  0  0  0  0  0  0  0  0  0  0
  2  9  1  0  0  0  0
  3  1  1  0  0  0  0
  4  1  2  0  0  0  0
  5  3  1  0  0  0  0
  6 22  1  0  0  0  0
  7  1  1  0  0  0  0
  8  4  1  0  0  0  0
  9 18  1  0  0  0  0
 10  3  1  0  0  0  0
 11 30  1  0  0  0  0
 12  2  1  0  0  0  0
 13  2  1  0  0  0  0
 14  2  1  0  0  0  0
 15  5  1  0  0  0  0
 16  6  1  0  0  0  0
 17 27  1  0  0  0  0
 18 28  2  0  0  0  0
 19 25  1  0  0  0  0
 20 15  1  0  0  0  0
 21 15  1  0  0  0  0
 22 21  1  0  0  0  0
 23 20  1  0  0  0  0
 24  4  1  0  0  0  0
 25  7  2  0  0  0  0
 26 16  1  0  0  0  0
 27 26  2  0  0  0  0
 28 26  1  0  0  0  0
 29 19  1  0  0  0  0
 30 10  2  0  0  0  0
 31 10  1  0  0  0  0
 32 33  1  0  0  0  0
 33 31  2  0  0  0  0
  8 19  2  0  0  0  0
 11 32  2  0  0  0  0
 23  6  1  0  0  0  0
 17  9  2  0  0  0  0
M  END
> <Molecule Name>
DNDI1625110

> <CDD Number>
CDD-1535835

> <IC50_uM>
0.048 (n=1)

$$$$

SketchEl molfile

 28 31  0  0  0  0  0  0  0  0999 V2000
    9.9951   -6.6414    0.0000 N   0  0  0  0  0  0  0  0  0  0  0  0
   10.7075   -6.2290    0.0000 C   0  0  0  0  0  0  0  0  0  0  0  0
   10.6992   -5.4125    0.0000 N   0  0  0  0  0  0  0  0  0  0  0  0
    7.8579   -8.7036    0.0000 C   0  0  0  0  0  0  0  0  0  0  0  0
    7.8496   -7.8788    0.0000 N   0  0  0  0  0  0  0  0  0  0  0  0
    8.5745   -9.1161    0.0000 C   0  0  0  0  0  0  0  0  0  0  0  0
    7.1455   -9.1244    0.0000 C   0  0  0  0  0  0  0  0  0  0  0  0
    9.9868   -7.4663    0.0000 C   0  0  0  0  0  0  0  0  0  0  0  0
    9.2744   -6.2290    0.0000 C   0  0  0  0  0  0  0  0  0  0  0  0
    9.2869  -10.3492    0.0000 N   0  0  0  0  0  0  0  0  0  0  0  0
   11.4199   -6.6498    0.0000 C   0  0  0  0  0  0  0  0  0  0  0  0
    8.5620   -6.6414    0.0000 C   0  0  0  0  0  0  0  0  0  0  0  0
    9.2827   -7.8788    0.0000 C   0  0  0  0  0  0  0  0  0  0  0  0
    8.5620   -7.4663    0.0000 C   0  0  0  0  0  0  0  0  0  0  0  0
    6.4248   -8.7120    0.0000 C   0  0  0  0  0  0  0  0  0  0  0  0
    7.1455   -9.9535    0.0000 C   0  0  0  0  0  0  0  0  0  0  0  0
   11.4116   -5.0000    0.0000 C   0  0  0  0  0  0  0  0  0  0  0  0
   12.1323   -5.4125    0.0000 C   0  0  0  0  0  0  0  0  0  0  0  0
    5.7124   -9.9535    0.0000 C   0  0  0  0  0  0  0  0  0  0  0  0
   12.1323   -6.2373    0.0000 C   0  0  0  0  0  0  0  0  0  0  0  0
    6.4248  -10.3659    0.0000 C   0  0  0  0  0  0  0  0  0  0  0  0
    5.7124   -9.1244    0.0000 C   0  0  0  0  0  0  0  0  0  0  0  0
    8.5745   -9.9410    0.0000 C   0  0  0  0  0  0  0  0  0  0  0  0
    5.0000  -10.3659    0.0000 Cl  0  0  0  0  0  0  0  0  0  0  0  0
   12.8489   -5.0000    0.0000 Cl  0  0  0  0  0  0  0  0  0  0  0  0
    9.2744   -8.6995    0.0000 C   0  0  0  0  0  0  0  0  0  0  0  0
    9.9993   -9.9285    0.0000 C   0  0  0  0  0  0  0  0  0  0  0  0
    9.9951   -9.1036    0.0000 C   0  0  0  0  0  0  0  0  0  0  0  0
  2  1  1  0  0  0  0
  3  2  1  0  0  0  0
  4  5  1  0  0  0  0
  5 14  1  0  0  0  0
  6  4  1  0  0  0  0
  7  4  1  0  0  0  0
  8  1  1  0  0  0  0
  9  1  1  0  0  0  0
 10 23  1  0  0  0  0
 11  2  2  0  0  0  0
 12  9  1  0  0  0  0
 13  8  1  0  0  0  0
 14 12  1  0  0  0  0
 15  7  2  0  0  0  0
 16  7  1  0  0  0  0
 17  3  2  0  0  0  0
 18 20  2  0  0  0  0
 19 21  1  0  0  0  0
 20 11  1  0  0  0  0
 21 16  2  0  0  0  0
 22 15  1  0  0  0  0
 23  6  2  0  0  0  0
 24 19  1  0  0  0  0
 25 18  1  0  0  0  0
 26  6  1  0  0  0  0
 27 28  1  0  0  0  0
 28 26  2  0  0  0  0
 14 13  1  0  0  0  0
 17 18  1  0  0  0  0
 22 19  2  0  0  0  0
 10 27  2  0  0  0  0
M  END
> <Molecule Name>
DNDI1625111

> <CDD Number>
CDD-1535836

> <IC50_uM>
0.035 (n=1)

$$$$

SketchEl molfile

 31 34  0  0  0  0  0  0  0  0999 V2000
    7.1459   -8.7210    0.0000 C   0  0  0  0  0  0  0  0  0  0  0  0
    7.8584   -8.3001    0.0000 C   0  0  0  0  0  0  0  0  0  0  0  0
    6.4251   -8.3085    0.0000 C   0  0  0  0  0  0  0  0  0  0  0  0
   11.4252   -6.2376    0.0000 C   0  0  0  0  0  0  0  0  0  0  0  0
    9.9960   -6.2376    0.0000 N   0  0  0  0  0  0  0  0  0  0  0  0
   12.1336   -5.8250    0.0000 C   0  0  0  0  0  0  0  0  0  0  0  0
    7.8501   -7.4751    0.0000 N   0  0  0  0  0  0  0  0  0  0  0  0
    7.1459   -9.5502    0.0000 C   0  0  0  0  0  0  0  0  0  0  0  0
    5.7125   -8.7210    0.0000 C   0  0  0  0  0  0  0  0  0  0  0  0
   12.8461   -6.2376    0.0000 C   0  0  0  0  0  0  0  0  0  0  0  0
   10.7086   -5.8250    0.0000 C   0  0  0  0  0  0  0  0  0  0  0  0
    8.5751   -8.7127    0.0000 C   0  0  0  0  0  0  0  0  0  0  0  0
    9.2877   -9.9460    0.0000 N   0  0  0  0  0  0  0  0  0  0  0  0
   11.4211   -7.0626    0.0000 C   0  0  0  0  0  0  0  0  0  0  0  0
    8.5626   -7.0626    0.0000 C   0  0  0  0  0  0  0  0  0  0  0  0
    5.7125   -9.5502    0.0000 C   0  0  0  0  0  0  0  0  0  0  0  0
    8.5626   -6.2376    0.0000 C   0  0  0  0  0  0  0  0  0  0  0  0
    9.2835   -7.4751    0.0000 C   0  0  0  0  0  0  0  0  0  0  0  0
   12.8503   -7.0626    0.0000 C   0  0  0  0  0  0  0  0  0  0  0  0
    9.2752   -5.8250    0.0000 C   0  0  0  0  0  0  0  0  0  0  0  0
    9.9877   -7.0626    0.0000 C   0  0  0  0  0  0  0  0  0  0  0  0
    6.4251   -7.4834    0.0000 F   0  0  0  0  0  0  0  0  0  0  0  0
   12.1253   -5.0000    0.0000 Cl  0  0  0  0  0  0  0  0  0  0  0  0
    6.4251   -9.9627    0.0000 C   0  0  0  0  0  0  0  0  0  0  0  0
   12.1336   -7.4751    0.0000 C   0  0  0  0  0  0  0  0  0  0  0  0
   13.5628   -7.4751    0.0000 Cl  0  0  0  0  0  0  0  0  0  0  0  0
    5.0000   -9.9627    0.0000 Cl  0  0  0  0  0  0  0  0  0  0  0  0
    8.5751   -9.5377    0.0000 C   0  0  0  0  0  0  0  0  0  0  0  0
    9.2752   -8.2960    0.0000 C   0  0  0  0  0  0  0  0  0  0  0  0
   10.0002   -9.5252    0.0000 C   0  0  0  0  0  0  0  0  0  0  0  0
    9.9960   -8.7002    0.0000 C   0  0  0  0  0  0  0  0  0  0  0  0
  2  1  1  0  0  0  0
  3  1  2  0  0  0  0
  4 11  1  0  0  0  0
  5 21  1  0  0  0  0
  6  4  1  0  0  0  0
  7  2  1  0  0  0  0
  8  1  1  0  0  0  0
  9  3  1  0  0  0  0
 10  6  2  0  0  0  0
 11  5  1  0  0  0  0
 12  2  1  0  0  0  0
 13 28  1  0  0  0  0
 14  4  2  0  0  0  0
 15  7  1  0  0  0  0
 16 24  1  0  0  0  0
 17 15  1  0  0  0  0
 18 15  1  0  0  0  0
 19 25  2  0  0  0  0
 20 17  1  0  0  0  0
 21 18  1  0  0  0  0
 22  3  1  0  0  0  0
 23  6  1  0  0  0  0
 24  8  2  0  0  0  0
 25 14  1  0  0  0  0
 26 19  1  0  0  0  0
 27 16  1  0  0  0  0
 28 12  2  0  0  0  0
 29 12  1  0  0  0  0
 30 31  1  0  0  0  0
 31 29  2  0  0  0  0
  9 16  2  0  0  0  0
 13 30  2  0  0  0  0
 20  5  1  0  0  0  0
 10 19  1  0  0  0  0
M  END
> <Molecule Name>
DNDI1625112

> <CDD Number>
CDD-1535837

> <IC50_uM>
0.039 (n=1)

$$$$

SketchEl molfile

 31 34  0  0  0  0  0  0  0  0999 V2000
    7.1463   -9.1300    0.0000 C   0  0  0  0  0  0  0  0  0  0  0  0
    7.8589   -8.7132    0.0000 C   0  0  0  0  0  0  0  0  0  0  0  0
    9.9926   -6.6462    0.0000 N   0  0  0  0  0  0  0  0  0  0  0  0
    6.4294   -8.7174    0.0000 C   0  0  0  0  0  0  0  0  0  0  0  0
   10.7053   -6.2336    0.0000 C   0  0  0  0  0  0  0  0  0  0  0  0
   11.4138   -6.6503    0.0000 C   0  0  0  0  0  0  0  0  0  0  0  0
    7.8547   -7.8881    0.0000 N   0  0  0  0  0  0  0  0  0  0  0  0
   12.1306   -6.2378    0.0000 C   0  0  0  0  0  0  0  0  0  0  0  0
    7.1463   -9.9593    0.0000 C   0  0  0  0  0  0  0  0  0  0  0  0
    5.7168   -9.1300    0.0000 C   0  0  0  0  0  0  0  0  0  0  0  0
    8.5757   -9.1217    0.0000 C   0  0  0  0  0  0  0  0  0  0  0  0
    9.2758   -6.2378    0.0000 C   0  0  0  0  0  0  0  0  0  0  0  0
    9.9885   -7.4755    0.0000 C   0  0  0  0  0  0  0  0  0  0  0  0
   12.1306   -5.4126    0.0000 C   0  0  0  0  0  0  0  0  0  0  0  0
    9.2883  -10.3552    0.0000 N   0  0  0  0  0  0  0  0  0  0  0  0
   10.6969   -5.4168    0.0000 C   0  0  0  0  0  0  0  0  0  0  0  0
   11.4096   -5.0000    0.0000 C   0  0  0  0  0  0  0  0  0  0  0  0
    8.5590   -6.6503    0.0000 C   0  0  0  0  0  0  0  0  0  0  0  0
    9.2800   -7.8839    0.0000 C   0  0  0  0  0  0  0  0  0  0  0  0
    8.5674   -7.4713    0.0000 C   0  0  0  0  0  0  0  0  0  0  0  0
    5.7168   -9.9593    0.0000 C   0  0  0  0  0  0  0  0  0  0  0  0
    6.4253   -7.8922    0.0000 F   0  0  0  0  0  0  0  0  0  0  0  0
   12.8432   -6.6545    0.0000 F   0  0  0  0  0  0  0  0  0  0  0  0
    6.4294  -10.3719    0.0000 C   0  0  0  0  0  0  0  0  0  0  0  0
    5.0000  -10.3719    0.0000 Cl  0  0  0  0  0  0  0  0  0  0  0  0
    8.5757   -9.9468    0.0000 C   0  0  0  0  0  0  0  0  0  0  0  0
   12.8432   -5.0000    0.0000 O   0  0  0  0  0  0  0  0  0  0  0  0
    9.2800   -8.7049    0.0000 C   0  0  0  0  0  0  0  0  0  0  0  0
   10.0051   -9.9385    0.0000 C   0  0  0  0  0  0  0  0  0  0  0  0
   13.5600   -5.4126    0.0000 C   0  0  0  0  0  0  0  0  0  0  0  0
    9.9968   -9.1092    0.0000 C   0  0  0  0  0  0  0  0  0  0  0  0
  2  1  1  0  0  0  0
  3 12  1  0  0  0  0
  4  1  2  0  0  0  0
  5  3  1  0  0  0  0
  6  5  2  0  0  0  0
  7  2  1  0  0  0  0
  8  6  1  0  0  0  0
  9  1  1  0  0  0  0
 10  4  1  0  0  0  0
 11  2  1  0  0  0  0
 12 18  1  0  0  0  0
 13 19  1  0  0  0  0
 14 17  1  0  0  0  0
 15 26  1  0  0  0  0
 16  5  1  0  0  0  0
 17 16  2  0  0  0  0
 18 20  1  0  0  0  0
 19 20  1  0  0  0  0
 20  7  1  0  0  0  0
 21 10  2  0  0  0  0
 22  4  1  0  0  0  0
 23  8  1  0  0  0  0
 24  9  2  0  0  0  0
 25 21  1  0  0  0  0
 26 11  2  0  0  0  0
 27 14  1  0  0  0  0
 28 11  1  0  0  0  0
 29 31  1  0  0  0  0
 30 27  1  0  0  0  0
 31 28  2  0  0  0  0
 24 21  1  0  0  0  0
  3 13  1  0  0  0  0
 29 15  2  0  0  0  0
 14  8  2  0  0  0  0
M  END
> <Molecule Name>
DNDI1625113

> <CDD Number>
CDD-1535838

> <IC50_uM>
0.0073 (n=1)

$$$$

SketchEl molfile

 30 33  0  0  0  0  0  0  0  0999 V2000
    7.1466   -9.1306    0.0000 C   0  0  0  0  0  0  0  0  0  0  0  0
    7.8593   -8.7138    0.0000 C   0  0  0  0  0  0  0  0  0  0  0  0
    9.9934   -6.6464    0.0000 N   0  0  0  0  0  0  0  0  0  0  0  0
    6.4297   -8.7180    0.0000 C   0  0  0  0  0  0  0  0  0  0  0  0
   10.7061   -6.2338    0.0000 C   0  0  0  0  0  0  0  0  0  0  0  0
   11.4147   -6.6506    0.0000 C   0  0  0  0  0  0  0  0  0  0  0  0
    7.8552   -7.8885    0.0000 N   0  0  0  0  0  0  0  0  0  0  0  0
   12.1316   -6.2379    0.0000 C   0  0  0  0  0  0  0  0  0  0  0  0
    7.1466   -9.9601    0.0000 C   0  0  0  0  0  0  0  0  0  0  0  0
    5.7169   -9.1348    0.0000 C   0  0  0  0  0  0  0  0  0  0  0  0
    8.5762   -9.1223    0.0000 C   0  0  0  0  0  0  0  0  0  0  0  0
   12.1316   -5.4126    0.0000 C   0  0  0  0  0  0  0  0  0  0  0  0
    9.9892   -7.4759    0.0000 C   0  0  0  0  0  0  0  0  0  0  0  0
    9.2765   -6.2379    0.0000 C   0  0  0  0  0  0  0  0  0  0  0  0
    9.2890  -10.3560    0.0000 N   0  0  0  0  0  0  0  0  0  0  0  0
   10.6978   -5.4168    0.0000 C   0  0  0  0  0  0  0  0  0  0  0  0
   11.4106   -5.0000    0.0000 C   0  0  0  0  0  0  0  0  0  0  0  0
    8.5596   -6.6506    0.0000 C   0  0  0  0  0  0  0  0  0  0  0  0
    9.2807   -7.8843    0.0000 C   0  0  0  0  0  0  0  0  0  0  0  0
    8.5679   -7.4717    0.0000 C   0  0  0  0  0  0  0  0  0  0  0  0
    5.7169   -9.9601    0.0000 C   0  0  0  0  0  0  0  0  0  0  0  0
    6.4255   -7.8927    0.0000 F   0  0  0  0  0  0  0  0  0  0  0  0
   12.8444   -6.6547    0.0000 F   0  0  0  0  0  0  0  0  0  0  0  0
    6.4297  -10.3727    0.0000 C   0  0  0  0  0  0  0  0  0  0  0  0
   12.8444   -5.0000    0.0000 F   0  0  0  0  0  0  0  0  0  0  0  0
    5.0000  -10.3727    0.0000 Cl  0  0  0  0  0  0  0  0  0  0  0  0
    8.5762   -9.9476    0.0000 C   0  0  0  0  0  0  0  0  0  0  0  0
    9.2807   -8.7055    0.0000 C   0  0  0  0  0  0  0  0  0  0  0  0
   10.0059   -9.9392    0.0000 C   0  0  0  0  0  0  0  0  0  0  0  0
    9.9976   -9.1098    0.0000 C   0  0  0  0  0  0  0  0  0  0  0  0
  2  1  1  0  0  0  0
  3 14  1  0  0  0  0
  4  1  2  0  0  0  0
  5  3  1  0  0  0  0
  6  5  2  0  0  0  0
  7  2  1  0  0  0  0
  8  6  1  0  0  0  0
  9  1  1  0  0  0  0
 10  4  1  0  0  0  0
 11  2  1  0  0  0  0
 12 17  1  0  0  0  0
 13 19  1  0  0  0  0
 14 18  1  0  0  0  0
 15 27  1  0  0  0  0
 16  5  1  0  0  0  0
 17 16  2  0  0  0  0
 18 20  1  0  0  0  0
 19 20  1  0  0  0  0
 20  7  1  0  0  0  0
 21 10  2  0  0  0  0
 22  4  1  0  0  0  0
 23  8  1  0  0  0  0
 24  9  2  0  0  0  0
 25 12  1  0  0  0  0
 26 21  1  0  0  0  0
 27 11  2  0  0  0  0
 28 11  1  0  0  0  0
 29 30  1  0  0  0  0
 30 28  2  0  0  0  0
 24 21  1  0  0  0  0
  3 13  1  0  0  0  0
 29 15  2  0  0  0  0
 12  8  2  0  0  0  0
M  END
> <Molecule Name>
DNDI1625114

> <CDD Number>
CDD-1535839

> <IC50_uM>
0.014 (n=1)

$$$$

SketchEl molfile

 31 34  0  0  0  0  0  0  0  0999 V2000
    7.1468   -9.1311    0.0000 C   0  0  0  0  0  0  0  0  0  0  0  0
    7.8597   -8.7143    0.0000 C   0  0  0  0  0  0  0  0  0  0  0  0
    9.9940   -6.6466    0.0000 N   0  0  0  0  0  0  0  0  0  0  0  0
    6.4298   -8.7185    0.0000 C   0  0  0  0  0  0  0  0  0  0  0  0
   12.1325   -6.2381    0.0000 C   0  0  0  0  0  0  0  0  0  0  0  0
   10.7069   -6.2339    0.0000 C   0  0  0  0  0  0  0  0  0  0  0  0
   13.5582   -7.0635    0.0000 N   0  0  0  0  0  0  0  0  0  0  0  0
   12.8454   -6.6550    0.0000 C   0  0  0  0  0  0  0  0  0  0  0  0
    7.8555   -7.8889    0.0000 N   0  0  0  0  0  0  0  0  0  0  0  0
   11.4155   -6.6508    0.0000 C   0  0  0  0  0  0  0  0  0  0  0  0
    7.1468   -9.9607    0.0000 C   0  0  0  0  0  0  0  0  0  0  0  0
    5.7170   -9.1353    0.0000 C   0  0  0  0  0  0  0  0  0  0  0  0
    8.5767   -9.1228    0.0000 C   0  0  0  0  0  0  0  0  0  0  0  0
   12.1325   -5.4127    0.0000 C   0  0  0  0  0  0  0  0  0  0  0  0
    9.9899   -7.4762    0.0000 C   0  0  0  0  0  0  0  0  0  0  0  0
    9.2770   -6.2381    0.0000 C   0  0  0  0  0  0  0  0  0  0  0  0
    9.2895  -10.3567    0.0000 N   0  0  0  0  0  0  0  0  0  0  0  0
   10.6985   -5.4169    0.0000 C   0  0  0  0  0  0  0  0  0  0  0  0
   11.4114   -5.0000    0.0000 C   0  0  0  0  0  0  0  0  0  0  0  0
    8.5600   -6.6508    0.0000 C   0  0  0  0  0  0  0  0  0  0  0  0
    9.2812   -7.8847    0.0000 C   0  0  0  0  0  0  0  0  0  0  0  0
    8.5683   -7.4720    0.0000 C   0  0  0  0  0  0  0  0  0  0  0  0
    5.7170   -9.9607    0.0000 C   0  0  0  0  0  0  0  0  0  0  0  0
    6.4257   -7.8931    0.0000 F   0  0  0  0  0  0  0  0  0  0  0  0
    6.4298  -10.3734    0.0000 C   0  0  0  0  0  0  0  0  0  0  0  0
   12.8454   -5.0000    0.0000 F   0  0  0  0  0  0  0  0  0  0  0  0
    5.0000  -10.3734    0.0000 Cl  0  0  0  0  0  0  0  0  0  0  0  0
    8.5767   -9.9482    0.0000 C   0  0  0  0  0  0  0  0  0  0  0  0
    9.2812   -8.7059    0.0000 C   0  0  0  0  0  0  0  0  0  0  0  0
   10.0065   -9.9399    0.0000 C   0  0  0  0  0  0  0  0  0  0  0  0
    9.9982   -9.1103    0.0000 C   0  0  0  0  0  0  0  0  0  0  0  0
  2  1  1  0  0  0  0
  3 16  1  0  0  0  0
  4  1  2  0  0  0  0
  5 10  1  0  0  0  0
  6  3  1  0  0  0  0
  7  8  3  0  0  0  0
  8  5  1  0  0  0  0
  9  2  1  0  0  0  0
 10  6  2  0  0  0  0
 11  1  1  0  0  0  0
 12  4  1  0  0  0  0
 13  2  1  0  0  0  0
 14 19  1  0  0  0  0
 15 21  1  0  0  0  0
 16 20  1  0  0  0  0
 17 28  1  0  0  0  0
 18  6  1  0  0  0  0
 19 18  2  0  0  0  0
 20 22  1  0  0  0  0
 21 22  1  0  0  0  0
 22  9  1  0  0  0  0
 23 12  2  0  0  0  0
 24  4  1  0  0  0  0
 25 11  2  0  0  0  0
 26 14  1  0  0  0  0
 27 23  1  0  0  0  0
 28 13  2  0  0  0  0
 29 13  1  0  0  0  0
 30 31  1  0  0  0  0
 31 29  2  0  0  0  0
 25 23  1  0  0  0  0
  3 15  1  0  0  0  0
 30 17  2  0  0  0  0
 14  5  2  0  0  0  0
M  END
> <Molecule Name>
DNDI1625115

> <CDD Number>
CDD-1535840

> <IC50_uM>
0.0207 (n=1)

$$$$

SketchEl molfile

 28 31  0  0  0  0  0  0  0  0999 V2000
    9.9936   -6.6465    0.0000 N   0  0  0  0  0  0  0  0  0  0  0  0
   10.7064   -6.2338    0.0000 C   0  0  0  0  0  0  0  0  0  0  0  0
   10.6980   -5.4168    0.0000 N   0  0  0  0  0  0  0  0  0  0  0  0
    7.8594   -8.7139    0.0000 C   0  0  0  0  0  0  0  0  0  0  0  0
    7.8553   -7.8886    0.0000 N   0  0  0  0  0  0  0  0  0  0  0  0
    8.5764   -9.1224    0.0000 C   0  0  0  0  0  0  0  0  0  0  0  0
    7.1467   -9.1308    0.0000 C   0  0  0  0  0  0  0  0  0  0  0  0
    9.9894   -7.4760    0.0000 C   0  0  0  0  0  0  0  0  0  0  0  0
    9.2766   -6.2380    0.0000 C   0  0  0  0  0  0  0  0  0  0  0  0
    9.2892  -10.3562    0.0000 N   0  0  0  0  0  0  0  0  0  0  0  0
   11.4150   -6.6506    0.0000 C   0  0  0  0  0  0  0  0  0  0  0  0
    9.2808   -7.8844    0.0000 C   0  0  0  0  0  0  0  0  0  0  0  0
    8.5597   -6.6506    0.0000 C   0  0  0  0  0  0  0  0  0  0  0  0
    8.5680   -7.4718    0.0000 C   0  0  0  0  0  0  0  0  0  0  0  0
    6.4297   -8.7181    0.0000 C   0  0  0  0  0  0  0  0  0  0  0  0
    7.1467   -9.9602    0.0000 C   0  0  0  0  0  0  0  0  0  0  0  0
   11.4108   -5.0000    0.0000 C   0  0  0  0  0  0  0  0  0  0  0  0
   12.1319   -5.4127    0.0000 C   0  0  0  0  0  0  0  0  0  0  0  0
    5.7169   -9.9602    0.0000 C   0  0  0  0  0  0  0  0  0  0  0  0
   12.1319   -6.2380    0.0000 C   0  0  0  0  0  0  0  0  0  0  0  0
    6.4297  -10.3729    0.0000 C   0  0  0  0  0  0  0  0  0  0  0  0
    5.7169   -9.1349    0.0000 C   0  0  0  0  0  0  0  0  0  0  0  0
    8.5764   -9.9477    0.0000 C   0  0  0  0  0  0  0  0  0  0  0  0
    5.0000  -10.3729    0.0000 Cl  0  0  0  0  0  0  0  0  0  0  0  0
   12.8447   -5.0000    0.0000 Br  0  0  0  0  0  0  0  0  0  0  0  0
    9.2808   -8.7056    0.0000 C   0  0  0  0  0  0  0  0  0  0  0  0
   10.0061   -9.9394    0.0000 C   0  0  0  0  0  0  0  0  0  0  0  0
    9.9978   -9.1099    0.0000 C   0  0  0  0  0  0  0  0  0  0  0  0
  2  1  1  0  0  0  0
  3  2  1  0  0  0  0
  4  5  1  0  0  0  0
  5 14  1  0  0  0  0
  6  4  1  0  0  0  0
  7  4  1  0  0  0  0
  8  1  1  0  0  0  0
  9  1  1  0  0  0  0
 10 23  1  0  0  0  0
 11  2  2  0  0  0  0
 12  8  1  0  0  0  0
 13  9  1  0  0  0  0
 14 13  1  0  0  0  0
 15  7  2  0  0  0  0
 16  7  1  0  0  0  0
 17  3  2  0  0  0  0
 18 17  1  0  0  0  0
 19 22  2  0  0  0  0
 20 11  1  0  0  0  0
 21 16  2  0  0  0  0
 22 15  1  0  0  0  0
 23  6  2  0  0  0  0
 24 19  1  0  0  0  0
 25 18  1  0  0  0  0
 26  6  1  0  0  0  0
 27 28  1  0  0  0  0
 28 26  2  0  0  0  0
 18 20  2  0  0  0  0
 12 14  1  0  0  0  0
 21 19  1  0  0  0  0
 27 10  2  0  0  0  0
M  END
> <Molecule Name>
DNDI1625116

> <CDD Number>
CDD-1535841

> <IC50_uM>
0.0257 (n=1)

$$$$

SketchEl molfile

 29 32  0  0  0  0  0  0  0  0999 V2000
    9.9927   -6.6462    0.0000 N   0  0  0  0  0  0  0  0  0  0  0  0
    7.8589   -8.7133    0.0000 C   0  0  0  0  0  0  0  0  0  0  0  0
   10.7054   -6.2336    0.0000 C   0  0  0  0  0  0  0  0  0  0  0  0
    7.8548   -7.8881    0.0000 N   0  0  0  0  0  0  0  0  0  0  0  0
   11.4139   -6.6504    0.0000 C   0  0  0  0  0  0  0  0  0  0  0  0
    8.5758   -9.1217    0.0000 C   0  0  0  0  0  0  0  0  0  0  0  0
   11.4097   -5.0000    0.0000 N   0  0  0  0  0  0  0  0  0  0  0  0
    7.1463   -9.1301    0.0000 C   0  0  0  0  0  0  0  0  0  0  0  0
    9.2759   -6.2378    0.0000 C   0  0  0  0  0  0  0  0  0  0  0  0
    9.9886   -7.4755    0.0000 C   0  0  0  0  0  0  0  0  0  0  0  0
    9.2884  -10.3553    0.0000 N   0  0  0  0  0  0  0  0  0  0  0  0
    9.2801   -7.8840    0.0000 C   0  0  0  0  0  0  0  0  0  0  0  0
    8.5591   -6.6504    0.0000 C   0  0  0  0  0  0  0  0  0  0  0  0
    8.5674   -7.4714    0.0000 C   0  0  0  0  0  0  0  0  0  0  0  0
    6.4295   -8.7175    0.0000 C   0  0  0  0  0  0  0  0  0  0  0  0
    7.1463   -9.9594    0.0000 C   0  0  0  0  0  0  0  0  0  0  0  0
   12.1307   -6.2378    0.0000 C   0  0  0  0  0  0  0  0  0  0  0  0
    5.7168   -9.9594    0.0000 C   0  0  0  0  0  0  0  0  0  0  0  0
   10.6971   -5.4168    0.0000 C   0  0  0  0  0  0  0  0  0  0  0  0
    5.7168   -9.1301    0.0000 C   0  0  0  0  0  0  0  0  0  0  0  0
    6.4295  -10.3720    0.0000 C   0  0  0  0  0  0  0  0  0  0  0  0
    8.5758   -9.9469    0.0000 C   0  0  0  0  0  0  0  0  0  0  0  0
    5.0000  -10.3720    0.0000 Cl  0  0  0  0  0  0  0  0  0  0  0  0
   12.1307   -5.4126    0.0000 C   0  0  0  0  0  0  0  0  0  0  0  0
   12.8434   -6.6545    0.0000 O   0  0  0  0  0  0  0  0  0  0  0  0
    9.2801   -8.7050    0.0000 C   0  0  0  0  0  0  0  0  0  0  0  0
   10.0052   -9.9386    0.0000 C   0  0  0  0  0  0  0  0  0  0  0  0
   12.8434   -7.4797    0.0000 C   0  0  0  0  0  0  0  0  0  0  0  0
    9.9969   -9.1092    0.0000 C   0  0  0  0  0  0  0  0  0  0  0  0
  2  4  1  0  0  0  0
  3  1  1  0  0  0  0
  4 14  1  0  0  0  0
  5  3  2  0  0  0  0
  6  2  1  0  0  0  0
  7 19  2  0  0  0  0
  8  2  1  0  0  0  0
  9  1  1  0  0  0  0
 10  1  1  0  0  0  0
 11 22  1  0  0  0  0
 12 10  1  0  0  0  0
 13  9  1  0  0  0  0
 14 13  1  0  0  0  0
 15  8  2  0  0  0  0
 16  8  1  0  0  0  0
 17  5  1  0  0  0  0
 18 20  2  0  0  0  0
 19  3  1  0  0  0  0
 20 15  1  0  0  0  0
 21 16  2  0  0  0  0
 22  6  2  0  0  0  0
 23 18  1  0  0  0  0
 24  7  1  0  0  0  0
 25 17  1  0  0  0  0
 26  6  1  0  0  0  0
 27 29  1  0  0  0  0
 28 25  1  0  0  0  0
 29 26  2  0  0  0  0
 12 14  1  0  0  0  0
 24 17  2  0  0  0  0
 21 18  1  0  0  0  0
 27 11  2  0  0  0  0
M  END
> <Molecule Name>
DNDI1625117

> <CDD Number>
CDD-1535842

> <IC50_uM>
0.042 (n=1)

$$$$

SketchEl molfile

 30 33  0  0  0  0  0  0  0  0999 V2000
    7.1464   -9.9556    0.0000 C   0  0  0  0  0  0  0  0  0  0  0  0
    7.8591   -9.5388    0.0000 C   0  0  0  0  0  0  0  0  0  0  0  0
    9.9931   -7.4715    0.0000 N   0  0  0  0  0  0  0  0  0  0  0  0
   10.7058   -7.0589    0.0000 C   0  0  0  0  0  0  0  0  0  0  0  0
    6.4296   -9.5430    0.0000 C   0  0  0  0  0  0  0  0  0  0  0  0
    7.8550   -8.7136    0.0000 N   0  0  0  0  0  0  0  0  0  0  0  0
   11.4143   -7.4757    0.0000 C   0  0  0  0  0  0  0  0  0  0  0  0
   10.6975   -6.2420    0.0000 C   0  0  0  0  0  0  0  0  0  0  0  0
    7.1464  -10.7850    0.0000 C   0  0  0  0  0  0  0  0  0  0  0  0
    5.7169   -9.9597    0.0000 C   0  0  0  0  0  0  0  0  0  0  0  0
    8.5760   -9.9472    0.0000 C   0  0  0  0  0  0  0  0  0  0  0  0
   11.4102   -5.8252    0.0000 C   0  0  0  0  0  0  0  0  0  0  0  0
   12.1312   -7.0631    0.0000 C   0  0  0  0  0  0  0  0  0  0  0  0
    9.2762   -7.0631    0.0000 C   0  0  0  0  0  0  0  0  0  0  0  0
    9.9889   -8.3009    0.0000 C   0  0  0  0  0  0  0  0  0  0  0  0
   12.1312   -6.2379    0.0000 C   0  0  0  0  0  0  0  0  0  0  0  0
    9.2887  -11.1809    0.0000 N   0  0  0  0  0  0  0  0  0  0  0  0
    8.5593   -7.4757    0.0000 C   0  0  0  0  0  0  0  0  0  0  0  0
    9.2804   -8.7094    0.0000 C   0  0  0  0  0  0  0  0  0  0  0  0
    8.5677   -8.2968    0.0000 C   0  0  0  0  0  0  0  0  0  0  0  0
    5.7169  -10.7850    0.0000 C   0  0  0  0  0  0  0  0  0  0  0  0
    6.4254   -8.7177    0.0000 F   0  0  0  0  0  0  0  0  0  0  0  0
    6.4296  -11.1976    0.0000 C   0  0  0  0  0  0  0  0  0  0  0  0
   11.4060   -5.0000    0.0000 F   0  0  0  0  0  0  0  0  0  0  0  0
   12.8439   -7.4799    0.0000 Cl  0  0  0  0  0  0  0  0  0  0  0  0
    5.0000  -11.1976    0.0000 Cl  0  0  0  0  0  0  0  0  0  0  0  0
    8.5760  -10.7725    0.0000 C   0  0  0  0  0  0  0  0  0  0  0  0
    9.2804   -9.5305    0.0000 C   0  0  0  0  0  0  0  0  0  0  0  0
   10.0056  -10.7641    0.0000 C   0  0  0  0  0  0  0  0  0  0  0  0
    9.9973   -9.9347    0.0000 C   0  0  0  0  0  0  0  0  0  0  0  0
  2  1  1  0  0  0  0
  3 14  1  0  0  0  0
  4  3  1  0  0  0  0
  5  1  2  0  0  0  0
  6  2  1  0  0  0  0
  7  4  2  0  0  0  0
  8  4  1  0  0  0  0
  9  1  1  0  0  0  0
 10  5  1  0  0  0  0
 11  2  1  0  0  0  0
 12  8  2  0  0  0  0
 13  7  1  0  0  0  0
 14 18  1  0  0  0  0
 15 19  1  0  0  0  0
 16 12  1  0  0  0  0
 17 27  1  0  0  0  0
 18 20  1  0  0  0  0
 19 20  1  0  0  0  0
 20  6  1  0  0  0  0
 21 10  2  0  0  0  0
 22  5  1  0  0  0  0
 23  9  2  0  0  0  0
 24 12  1  0  0  0  0
 25 13  1  0  0  0  0
 26 21  1  0  0  0  0
 27 11  2  0  0  0  0
 28 11  1  0  0  0  0
 29 30  1  0  0  0  0
 30 28  2  0  0  0  0
 23 21  1  0  0  0  0
  3 15  1  0  0  0  0
 29 17  2  0  0  0  0
 16 13  2  0  0  0  0
M  END
> <Molecule Name>
DNDI1625118

> <CDD Number>
CDD-1535843

> <IC50_uM>
0.019 (n=1)

$$$$

SketchEl molfile

 30 33  0  0  0  0  0  0  0  0999 V2000
    7.1458   -8.7166    0.0000 C   0  0  0  0  0  0  0  0  0  0  0  0
    7.8583   -8.2999    0.0000 C   0  0  0  0  0  0  0  0  0  0  0  0
    9.9957   -6.2374    0.0000 N   0  0  0  0  0  0  0  0  0  0  0  0
    6.4291   -8.3041    0.0000 C   0  0  0  0  0  0  0  0  0  0  0  0
    7.8541   -7.4749    0.0000 N   0  0  0  0  0  0  0  0  0  0  0  0
    7.1458   -9.5457    0.0000 C   0  0  0  0  0  0  0  0  0  0  0  0
    5.7167   -8.7166    0.0000 C   0  0  0  0  0  0  0  0  0  0  0  0
    8.5749   -8.7082    0.0000 C   0  0  0  0  0  0  0  0  0  0  0  0
   10.7082   -5.8249    0.0000 C   0  0  0  0  0  0  0  0  0  0  0  0
    9.2791   -5.8249    0.0000 C   0  0  0  0  0  0  0  0  0  0  0  0
    9.9916   -7.0624    0.0000 C   0  0  0  0  0  0  0  0  0  0  0  0
    9.2874   -9.9415    0.0000 N   0  0  0  0  0  0  0  0  0  0  0  0
    9.2833   -7.4749    0.0000 C   0  0  0  0  0  0  0  0  0  0  0  0
    8.5624   -6.2374    0.0000 C   0  0  0  0  0  0  0  0  0  0  0  0
    8.5666   -7.0583    0.0000 C   0  0  0  0  0  0  0  0  0  0  0  0
   11.4249   -6.2374    0.0000 C   0  0  0  0  0  0  0  0  0  0  0  0
    5.7167   -9.5457    0.0000 C   0  0  0  0  0  0  0  0  0  0  0  0
    6.4250   -7.4791    0.0000 F   0  0  0  0  0  0  0  0  0  0  0  0
    6.4291   -9.9582    0.0000 C   0  0  0  0  0  0  0  0  0  0  0  0
    5.0000   -9.9582    0.0000 Cl  0  0  0  0  0  0  0  0  0  0  0  0
    8.5749   -9.5332    0.0000 C   0  0  0  0  0  0  0  0  0  0  0  0
    9.2791   -8.2916    0.0000 C   0  0  0  0  0  0  0  0  0  0  0  0
   10.0041   -9.5249    0.0000 C   0  0  0  0  0  0  0  0  0  0  0  0
   10.7082   -5.0000    0.0000 C   0  0  0  0  0  0  0  0  0  0  0  0
   11.4207   -7.0624    0.0000 C   0  0  0  0  0  0  0  0  0  0  0  0
   12.1332   -5.8249    0.0000 C   0  0  0  0  0  0  0  0  0  0  0  0
    9.9957   -8.6957    0.0000 C   0  0  0  0  0  0  0  0  0  0  0  0
   12.1332   -7.4749    0.0000 C   0  0  0  0  0  0  0  0  0  0  0  0
   12.8457   -6.2333    0.0000 C   0  0  0  0  0  0  0  0  0  0  0  0
   12.8499   -7.0624    0.0000 C   0  0  0  0  0  0  0  0  0  0  0  0
  2  1  1  0  0  0  0
  3 10  1  0  0  0  0
  4  1  2  0  0  0  0
  5  2  1  0  0  0  0
  6  1  1  0  0  0  0
  7  4  1  0  0  0  0
  8  2  1  0  0  0  0
  9  3  1  0  0  0  0
 10 14  1  0  0  0  0
 11 13  1  0  0  0  0
 12 21  1  0  0  0  0
 13 15  1  0  0  0  0
 14 15  1  0  0  0  0
 15  5  1  0  0  0  0
 16  9  1  0  0  0  0
 17  7  2  0  0  0  0
 18  4  1  0  0  0  0
 19  6  2  0  0  0  0
 20 17  1  0  0  0  0
 21  8  2  0  0  0  0
 22  8  1  0  0  0  0
 23 27  1  0  0  0  0
 24  9  1  0  0  0  0
 25 16  2  0  0  0  0
 26 16  1  0  0  0  0
 27 22  2  0  0  0  0
 28 25  1  0  0  0  0
 29 26  2  0  0  0  0
 30 29  1  0  0  0  0
 19 17  1  0  0  0  0
  3 11  1  0  0  0  0
 23 12  2  0  0  0  0
 30 28  2  0  0  0  0
M  END
> <Molecule Name>
DNDI1639419

> <CDD Number>
CDD-1535844

> <IC50_uM>
0.314 (n=1)

$$$$

SketchEl molfile

 31 35  0  0  0  0  0  0  0  0999 V2000
   10.7095   -6.7015    0.0000 C   0  0  0  0  0  0  0  0  0  0  0  0
   10.7929   -5.8799    0.0000 N   0  0  0  0  0  0  0  0  0  0  0  0
   11.4602   -7.0394    0.0000 S   0  0  0  0  0  0  0  0  0  0  0  0
    7.1478   -9.6001    0.0000 C   0  0  0  0  0  0  0  0  0  0  0  0
    9.9963   -7.1144    0.0000 N   0  0  0  0  0  0  0  0  0  0  0  0
    7.8610   -9.1830    0.0000 C   0  0  0  0  0  0  0  0  0  0  0  0
    6.4305   -9.1872    0.0000 C   0  0  0  0  0  0  0  0  0  0  0  0
   11.6020   -5.7090    0.0000 C   0  0  0  0  0  0  0  0  0  0  0  0
   12.0107   -6.4263    0.0000 C   0  0  0  0  0  0  0  0  0  0  0  0
    7.8568   -8.3573    0.0000 N   0  0  0  0  0  0  0  0  0  0  0  0
    7.1478  -10.4300    0.0000 C   0  0  0  0  0  0  0  0  0  0  0  0
    5.7173   -9.6042    0.0000 C   0  0  0  0  0  0  0  0  0  0  0  0
    8.5783   -9.5917    0.0000 C   0  0  0  0  0  0  0  0  0  0  0  0
    9.2790   -6.7057    0.0000 C   0  0  0  0  0  0  0  0  0  0  0  0
    9.9921   -7.9444    0.0000 C   0  0  0  0  0  0  0  0  0  0  0  0
    9.2915  -10.8262    0.0000 N   0  0  0  0  0  0  0  0  0  0  0  0
    9.2832   -8.3531    0.0000 C   0  0  0  0  0  0  0  0  0  0  0  0
    8.5616   -7.1186    0.0000 C   0  0  0  0  0  0  0  0  0  0  0  0
    8.5700   -7.9402    0.0000 C   0  0  0  0  0  0  0  0  0  0  0  0
    5.7173  -10.4300    0.0000 C   0  0  0  0  0  0  0  0  0  0  0  0
    6.4263   -8.3614    0.0000 F   0  0  0  0  0  0  0  0  0  0  0  0
    6.4305  -10.8429    0.0000 C   0  0  0  0  0  0  0  0  0  0  0  0
    5.0000  -10.8429    0.0000 Cl  0  0  0  0  0  0  0  0  0  0  0  0
    8.5783  -10.4175    0.0000 C   0  0  0  0  0  0  0  0  0  0  0  0
   12.0107   -5.0000    0.0000 C   0  0  0  0  0  0  0  0  0  0  0  0
   12.8323   -6.4263    0.0000 C   0  0  0  0  0  0  0  0  0  0  0  0
    9.2832   -9.1747    0.0000 C   0  0  0  0  0  0  0  0  0  0  0  0
   10.0088  -10.4092    0.0000 C   0  0  0  0  0  0  0  0  0  0  0  0
   10.0005   -9.5792    0.0000 C   0  0  0  0  0  0  0  0  0  0  0  0
   12.8323   -5.0000    0.0000 C   0  0  0  0  0  0  0  0  0  0  0  0
   13.2452   -5.7173    0.0000 C   0  0  0  0  0  0  0  0  0  0  0  0
  2  1  2  0  0  0  0
  3  1  1  0  0  0  0
  4  6  1  0  0  0  0
  5  1  1  0  0  0  0
  6 10  1  0  0  0  0
  7  4  2  0  0  0  0
  8  2  1  0  0  0  0
  9  3  1  0  0  0  0
 10 19  1  0  0  0  0
 11  4  1  0  0  0  0
 12  7  1  0  0  0  0
 13  6  1  0  0  0  0
 14  5  1  0  0  0  0
 15  5  1  0  0  0  0
 16 24  1  0  0  0  0
 17 15  1  0  0  0  0
 18 14  1  0  0  0  0
 19 18  1  0  0  0  0
 20 12  2  0  0  0  0
 21  7  1  0  0  0  0
 22 11  2  0  0  0  0
 23 20  1  0  0  0  0
 24 13  2  0  0  0  0
 25  8  1  0  0  0  0
 26  9  1  0  0  0  0
 27 13  1  0  0  0  0
 28 29  1  0  0  0  0
 29 27  2  0  0  0  0
 30 25  2  0  0  0  0
 31 26  2  0  0  0  0
  9  8  2  0  0  0  0
 30 31  1  0  0  0  0
 17 19  1  0  0  0  0
 22 20  1  0  0  0  0
 28 16  2  0  0  0  0
M  END
> <Molecule Name>
DNDI1676778

> <CDD Number>
CDD-1535845

> <IC50_uM>
0.265 (n=1)

$$$$

SketchEl molfile

 35 38  0  0  0  0  0  0  0  0999 V2000
   10.7036   -7.5038    0.0000 S   0  0  0  0  0  0  0  0  0  0  0  0
    9.9911   -7.9163    0.0000 N   0  0  0  0  0  0  0  0  0  0  0  0
    7.1456  -10.3994    0.0000 C   0  0  0  0  0  0  0  0  0  0  0  0
   13.5407   -5.8249    0.0000 C   0  0  0  0  0  0  0  0  0  0  0  0
    7.8580   -9.9827    0.0000 C   0  0  0  0  0  0  0  0  0  0  0  0
    6.4290   -9.9869    0.0000 C   0  0  0  0  0  0  0  0  0  0  0  0
   11.4118   -7.0872    0.0000 C   0  0  0  0  0  0  0  0  0  0  0  0
    7.8539   -9.1578    0.0000 N   0  0  0  0  0  0  0  0  0  0  0  0
   10.4869   -6.6998    0.0000 O   0  0  0  0  0  0  0  0  0  0  0  0
   11.2868   -8.0871    0.0000 O   0  0  0  0  0  0  0  0  0  0  0  0
    7.1456  -11.2284    0.0000 C   0  0  0  0  0  0  0  0  0  0  0  0
    5.7166  -10.3994    0.0000 C   0  0  0  0  0  0  0  0  0  0  0  0
   12.8325   -6.2456    0.0000 C   0  0  0  0  0  0  0  0  0  0  0  0
    8.5746  -10.3910    0.0000 C   0  0  0  0  0  0  0  0  0  0  0  0
    9.9870   -8.7454    0.0000 C   0  0  0  0  0  0  0  0  0  0  0  0
    9.2745   -7.5080    0.0000 C   0  0  0  0  0  0  0  0  0  0  0  0
    9.2870  -11.6242    0.0000 N   0  0  0  0  0  0  0  0  0  0  0  0
   11.4035   -6.2665    0.0000 C   0  0  0  0  0  0  0  0  0  0  0  0
   12.1326   -7.4913    0.0000 C   0  0  0  0  0  0  0  0  0  0  0  0
   12.8408   -7.0706    0.0000 C   0  0  0  0  0  0  0  0  0  0  0  0
   12.1076   -5.8415    0.0000 C   0  0  0  0  0  0  0  0  0  0  0  0
   14.2615   -6.2290    0.0000 F   0  0  0  0  0  0  0  0  0  0  0  0
   13.5324   -5.0000    0.0000 F   0  0  0  0  0  0  0  0  0  0  0  0
   13.7657   -6.6206    0.0000 F   0  0  0  0  0  0  0  0  0  0  0  0
    9.2787   -9.1537    0.0000 C   0  0  0  0  0  0  0  0  0  0  0  0
    8.5579   -7.9205    0.0000 C   0  0  0  0  0  0  0  0  0  0  0  0
    8.5663   -8.7412    0.0000 C   0  0  0  0  0  0  0  0  0  0  0  0
    5.7166  -11.2284    0.0000 C   0  0  0  0  0  0  0  0  0  0  0  0
    6.4248   -9.1620    0.0000 F   0  0  0  0  0  0  0  0  0  0  0  0
    6.4290  -11.6409    0.0000 C   0  0  0  0  0  0  0  0  0  0  0  0
    5.0000  -11.6409    0.0000 Cl  0  0  0  0  0  0  0  0  0  0  0  0
    8.5746  -11.2159    0.0000 C   0  0  0  0  0  0  0  0  0  0  0  0
    9.2787   -9.9744    0.0000 C   0  0  0  0  0  0  0  0  0  0  0  0
   10.0036  -11.2076    0.0000 C   0  0  0  0  0  0  0  0  0  0  0  0
    9.9953  -10.3785    0.0000 C   0  0  0  0  0  0  0  0  0  0  0  0
  2  1  1  0  0  0  0
  3  5  1  0  0  0  0
  4 13  1  0  0  0  0
  5  8  1  0  0  0  0
  6  3  2  0  0  0  0
  7  1  1  0  0  0  0
  8 27  1  0  0  0  0
  9  1  2  0  0  0  0
 10  1  2  0  0  0  0
 11  3  1  0  0  0  0
 12  6  1  0  0  0  0
 13 21  1  0  0  0  0
 14  5  1  0  0  0  0
 15  2  1  0  0  0  0
 16  2  1  0  0  0  0
 17 32  1  0  0  0  0
 18  7  1  0  0  0  0
 19  7  2  0  0  0  0
 20 19  1  0  0  0  0
 21 18  2  0  0  0  0
 22  4  1  0  0  0  0
 23  4  1  0  0  0  0
 24  4  1  0  0  0  0
 25 15  1  0  0  0  0
 26 16  1  0  0  0  0
 27 26  1  0  0  0  0
 28 12  2  0  0  0  0
 29  6  1  0  0  0  0
 30 11  2  0  0  0  0
 31 28  1  0  0  0  0
 32 14  2  0  0  0  0
 33 14  1  0  0  0  0
 34 17  2  0  0  0  0
 35 33  2  0  0  0  0
 13 20  2  0  0  0  0
 25 27  1  0  0  0  0
 35 34  1  0  0  0  0
 30 28  1  0  0  0  0
M  END
> <Molecule Name>
DNDI1676779

> <CDD Number>
CDD-1535846

> <IC50_uM>
0.036 (n=1)

$$$$

SketchEl molfile

 34 37  0  0  0  0  0  0  0  0999 V2000
    7.1460   -8.7169    0.0000 C   0  0  0  0  0  0  0  0  0  0  0  0
   13.5631   -7.4752    0.0000 C   0  0  0  0  0  0  0  0  0  0  0  0
    7.8585   -8.3002    0.0000 C   0  0  0  0  0  0  0  0  0  0  0  0
    9.9962   -6.2376    0.0000 N   0  0  0  0  0  0  0  0  0  0  0  0
    6.4293   -8.3044    0.0000 C   0  0  0  0  0  0  0  0  0  0  0  0
    7.8544   -7.4752    0.0000 N   0  0  0  0  0  0  0  0  0  0  0  0
    7.1460   -9.5462    0.0000 C   0  0  0  0  0  0  0  0  0  0  0  0
    5.7167   -8.7211    0.0000 C   0  0  0  0  0  0  0  0  0  0  0  0
   12.8506   -7.0626    0.0000 C   0  0  0  0  0  0  0  0  0  0  0  0
    8.5753   -8.7086    0.0000 C   0  0  0  0  0  0  0  0  0  0  0  0
   10.7088   -5.8251    0.0000 C   0  0  0  0  0  0  0  0  0  0  0  0
   11.4255   -6.2376    0.0000 C   0  0  0  0  0  0  0  0  0  0  0  0
    9.9920   -7.0626    0.0000 C   0  0  0  0  0  0  0  0  0  0  0  0
    9.2795   -5.8251    0.0000 C   0  0  0  0  0  0  0  0  0  0  0  0
    9.2878   -9.9420    0.0000 N   0  0  0  0  0  0  0  0  0  0  0  0
   12.8464   -6.2334    0.0000 C   0  0  0  0  0  0  0  0  0  0  0  0
   12.1339   -7.4752    0.0000 C   0  0  0  0  0  0  0  0  0  0  0  0
   13.5673   -8.3002    0.0000 F   0  0  0  0  0  0  0  0  0  0  0  0
   14.2799   -7.0585    0.0000 F   0  0  0  0  0  0  0  0  0  0  0  0
   12.9839   -8.0586    0.0000 F   0  0  0  0  0  0  0  0  0  0  0  0
   11.4213   -7.0626    0.0000 C   0  0  0  0  0  0  0  0  0  0  0  0
   12.1339   -5.8251    0.0000 C   0  0  0  0  0  0  0  0  0  0  0  0
    9.2837   -7.4752    0.0000 C   0  0  0  0  0  0  0  0  0  0  0  0
    8.5628   -6.2376    0.0000 C   0  0  0  0  0  0  0  0  0  0  0  0
    8.5669   -7.0585    0.0000 C   0  0  0  0  0  0  0  0  0  0  0  0
    5.7167   -9.5462    0.0000 C   0  0  0  0  0  0  0  0  0  0  0  0
    6.4251   -7.4793    0.0000 F   0  0  0  0  0  0  0  0  0  0  0  0
    6.4293   -9.9587    0.0000 C   0  0  0  0  0  0  0  0  0  0  0  0
    5.0000   -9.9587    0.0000 Cl  0  0  0  0  0  0  0  0  0  0  0  0
    8.5753   -9.5337    0.0000 C   0  0  0  0  0  0  0  0  0  0  0  0
    9.2795   -8.2919    0.0000 C   0  0  0  0  0  0  0  0  0  0  0  0
   10.0045   -9.5253    0.0000 C   0  0  0  0  0  0  0  0  0  0  0  0
   10.7088   -5.0000    0.0000 C   0  0  0  0  0  0  0  0  0  0  0  0
    9.9962   -8.6961    0.0000 C   0  0  0  0  0  0  0  0  0  0  0  0
  2  9  1  0  0  0  0
  3  1  1  0  0  0  0
  4 14  1  0  0  0  0
  5  1  2  0  0  0  0
  6  3  1  0  0  0  0
  7  1  1  0  0  0  0
  8  5  1  0  0  0  0
  9 16  1  0  0  0  0
 10  3  1  0  0  0  0
 11  4  1  0  0  0  0
 12 11  1  0  0  0  0
 13 23  1  0  0  0  0
 14 24  1  0  0  0  0
 15 30  1  0  0  0  0
 16 22  2  0  0  0  0
 17 21  1  0  0  0  0
 18  2  1  0  0  0  0
 19  2  1  0  0  0  0
 20  2  1  0  0  0  0
 21 12  2  0  0  0  0
 22 12  1  0  0  0  0
 23 25  1  0  0  0  0
 24 25  1  0  0  0  0
 25  6  1  0  0  0  0
 26  8  2  0  0  0  0
 27  5  1  0  0  0  0
 28  7  2  0  0  0  0
 29 26  1  0  0  0  0
 30 10  2  0  0  0  0
 31 10  1  0  0  0  0
 32 15  2  0  0  0  0
 33 11  1  0  0  0  0
 34 31  2  0  0  0  0
 28 26  1  0  0  0  0
 34 32  1  0  0  0  0
  4 13  1  0  0  0  0
  9 17  2  0  0  0  0
M  END
> <Molecule Name>
DNDI1676784

> <CDD Number>
CDD-1535847

> <IC50_uM>
0.075 (n=1)

$$$$

SketchEl molfile

 33 36  0  0  0  0  0  0  0  0999 V2000
    9.9832   -7.0418    0.0000 N   0  0  0  0  0  0  0  0  0  0  0  0
    7.1422   -9.5209    0.0000 C   0  0  0  0  0  0  0  0  0  0  0  0
    7.8535   -9.1050    0.0000 C   0  0  0  0  0  0  0  0  0  0  0  0
    6.4267   -9.1091    0.0000 C   0  0  0  0  0  0  0  0  0  0  0  0
    7.8493   -8.2814    0.0000 N   0  0  0  0  0  0  0  0  0  0  0  0
    7.1422  -10.3487    0.0000 C   0  0  0  0  0  0  0  0  0  0  0  0
    5.7154   -9.5209    0.0000 C   0  0  0  0  0  0  0  0  0  0  0  0
    8.5689   -9.5126    0.0000 C   0  0  0  0  0  0  0  0  0  0  0  0
    9.9790   -7.8696    0.0000 C   0  0  0  0  0  0  0  0  0  0  0  0
    9.2677   -6.6342    0.0000 C   0  0  0  0  0  0  0  0  0  0  0  0
    9.2802  -10.7439    0.0000 N   0  0  0  0  0  0  0  0  0  0  0  0
    9.2719   -8.2772    0.0000 C   0  0  0  0  0  0  0  0  0  0  0  0
    8.5523   -7.0460    0.0000 C   0  0  0  0  0  0  0  0  0  0  0  0
    8.5606   -7.8654    0.0000 C   0  0  0  0  0  0  0  0  0  0  0  0
    5.7154  -10.3487    0.0000 C   0  0  0  0  0  0  0  0  0  0  0  0
    6.4226   -8.2856    0.0000 F   0  0  0  0  0  0  0  0  0  0  0  0
    6.4267  -10.7605    0.0000 C   0  0  0  0  0  0  0  0  0  0  0  0
    5.0000  -10.7605    0.0000 Cl  0  0  0  0  0  0  0  0  0  0  0  0
    8.5689  -10.3362    0.0000 C   0  0  0  0  0  0  0  0  0  0  0  0
    9.2719   -9.0967    0.0000 C   0  0  0  0  0  0  0  0  0  0  0  0
    9.9957  -10.3279    0.0000 C   0  0  0  0  0  0  0  0  0  0  0  0
    9.9873   -9.5001    0.0000 C   0  0  0  0  0  0  0  0  0  0  0  0
   10.6999   -6.6277    0.0000 C   0  0  0  0  0  0  0  0  0  0  0  0
   11.4142   -7.0445    0.0000 C   0  0  0  0  0  0  0  0  0  0  0  0
   12.1305   -6.6311    0.0000 C   0  0  0  0  0  0  0  0  0  0  0  0
   12.1306   -5.8024    0.0000 C   0  0  0  0  0  0  0  0  0  0  0  0
   11.4086   -5.3889    0.0000 C   0  0  0  0  0  0  0  0  0  0  0  0
   10.6953   -5.8048    0.0000 C   0  0  0  0  0  0  0  0  0  0  0  0
   12.8476   -5.3869    0.0000 O   0  0  0  0  0  0  0  0  0  0  0  0
   13.5659   -5.8000    0.0000 C   0  0  0  0  0  0  0  0  0  0  0  0
   14.2828   -5.3845    0.0000 F   0  0  0  0  0  0  0  0  0  0  0  0
   13.5673   -6.6287    0.0000 F   0  0  0  0  0  0  0  0  0  0  0  0
   13.3501   -5.0000    0.0000 F   0  0  0  0  0  0  0  0  0  0  0  0
  2  3  1  0  0  0  0
  3  5  1  0  0  0  0
  4  2  2  0  0  0  0
  5 14  1  0  0  0  0
  6  2  1  0  0  0  0
  7  4  1  0  0  0  0
  8  3  1  0  0  0  0
  9  1  1  0  0  0  0
 10  1  1  0  0  0  0
 11 19  1  0  0  0  0
 12  9  1  0  0  0  0
 13 10  1  0  0  0  0
 14 13  1  0  0  0  0
 15  7  2  0  0  0  0
 16  4  1  0  0  0  0
 17  6  2  0  0  0  0
 18 15  1  0  0  0  0
 19  8  2  0  0  0  0
 20  8  1  0  0  0  0
 21 11  2  0  0  0  0
 22 20  2  0  0  0  0
 12 14  1  0  0  0  0
 22 21  1  0  0  0  0
 17 15  1  0  0  0  0
  1 23  1  0  0  0  0
 23 24  2  0  0  0  0
 24 25  1  0  0  0  0
 25 26  2  0  0  0  0
 26 27  1  0  0  0  0
 27 28  2  0  0  0  0
 28 23  1  0  0  0  0
 26 29  1  0  0  0  0
 29 30  1  0  0  0  0
 30 31  1  0  0  0  0
 30 32  1  0  0  0  0
 30 33  1  0  0  0  0
M  END
> <Molecule Name>
DNDI1676785

> <CDD Number>
CDD-1535848

> <IC50_uM>
0.008 (n=1)

$$$$

SketchEl molfile

 29 32  0  0  0  0  0  0  0  0999 V2000
    9.9928   -6.6462    0.0000 N   0  0  0  0  0  0  0  0  0  0  0  0
    7.8590   -8.7133    0.0000 C   0  0  0  0  0  0  0  0  0  0  0  0
    7.8548   -7.8881    0.0000 N   0  0  0  0  0  0  0  0  0  0  0  0
   10.7054   -6.2336    0.0000 C   0  0  0  0  0  0  0  0  0  0  0  0
    8.5758   -9.1217    0.0000 C   0  0  0  0  0  0  0  0  0  0  0  0
    7.1463   -9.1301    0.0000 C   0  0  0  0  0  0  0  0  0  0  0  0
    9.2760   -6.2377    0.0000 C   0  0  0  0  0  0  0  0  0  0  0  0
    9.9886   -7.4755    0.0000 C   0  0  0  0  0  0  0  0  0  0  0  0
    9.2885  -10.3553    0.0000 N   0  0  0  0  0  0  0  0  0  0  0  0
    8.5591   -6.6503    0.0000 C   0  0  0  0  0  0  0  0  0  0  0  0
    9.2801   -7.8839    0.0000 C   0  0  0  0  0  0  0  0  0  0  0  0
    8.5675   -7.4714    0.0000 C   0  0  0  0  0  0  0  0  0  0  0  0
   11.4139   -6.6503    0.0000 C   0  0  0  0  0  0  0  0  0  0  0  0
   10.6971   -5.4167    0.0000 C   0  0  0  0  0  0  0  0  0  0  0  0
    6.4295   -8.7175    0.0000 C   0  0  0  0  0  0  0  0  0  0  0  0
    7.1463   -9.9594    0.0000 C   0  0  0  0  0  0  0  0  0  0  0  0
   12.1308   -5.4126    0.0000 C   0  0  0  0  0  0  0  0  0  0  0  0
    5.7168   -9.9594    0.0000 C   0  0  0  0  0  0  0  0  0  0  0  0
   12.8434   -5.0000    0.0000 S   0  0  0  0  0  0  0  0  0  0  0  0
   12.1308   -6.2377    0.0000 C   0  0  0  0  0  0  0  0  0  0  0  0
   11.4098   -5.0000    0.0000 C   0  0  0  0  0  0  0  0  0  0  0  0
    5.7168   -9.1301    0.0000 C   0  0  0  0  0  0  0  0  0  0  0  0
    6.4295  -10.3720    0.0000 C   0  0  0  0  0  0  0  0  0  0  0  0
    8.5758   -9.9469    0.0000 C   0  0  0  0  0  0  0  0  0  0  0  0
    5.0000  -10.3720    0.0000 Cl  0  0  0  0  0  0  0  0  0  0  0  0
    9.2801   -8.7050    0.0000 C   0  0  0  0  0  0  0  0  0  0  0  0
   10.0053   -9.9386    0.0000 C   0  0  0  0  0  0  0  0  0  0  0  0
   13.5602   -5.4126    0.0000 C   0  0  0  0  0  0  0  0  0  0  0  0
    9.9969   -9.1092    0.0000 C   0  0  0  0  0  0  0  0  0  0  0  0
  2  3  1  0  0  0  0
  3 12  1  0  0  0  0
  4  1  1  0  0  0  0
  5  2  1  0  0  0  0
  6  2  1  0  0  0  0
  7  1  1  0  0  0  0
  8  1  1  0  0  0  0
  9 24  1  0  0  0  0
 10  7  1  0  0  0  0
 11  8  1  0  0  0  0
 12 10  1  0  0  0  0
 13  4  2  0  0  0  0
 14  4  1  0  0  0  0
 15  6  2  0  0  0  0
 16  6  1  0  0  0  0
 17 21  1  0  0  0  0
 18 22  2  0  0  0  0
 19 17  1  0  0  0  0
 20 13  1  0  0  0  0
 21 14  2  0  0  0  0
 22 15  1  0  0  0  0
 23 16  2  0  0  0  0
 24  5  2  0  0  0  0
 25 18  1  0  0  0  0
 26  5  1  0  0  0  0
 27  9  2  0  0  0  0
 28 19  1  0  0  0  0
 29 26  2  0  0  0  0
 17 20  2  0  0  0  0
 11 12  1  0  0  0  0
 29 27  1  0  0  0  0
 23 18  1  0  0  0  0
M  END
> <Molecule Name>
DNDI1677864

> <CDD Number>
CDD-1535849

> <IC50_uM>
0.007 (n=1)

$$$$

SketchEl molfile

 32 35  0  0  0  0  0  0  0  0999 V2000
   12.8438   -5.8252    0.0000 S   0  0  0  0  0  0  0  0  0  0  0  0
    7.1464   -9.9555    0.0000 C   0  0  0  0  0  0  0  0  0  0  0  0
    7.8591   -9.5387    0.0000 C   0  0  0  0  0  0  0  0  0  0  0  0
    9.9930   -7.4715    0.0000 N   0  0  0  0  0  0  0  0  0  0  0  0
    6.4296   -9.5429    0.0000 C   0  0  0  0  0  0  0  0  0  0  0  0
    7.8549   -8.7135    0.0000 N   0  0  0  0  0  0  0  0  0  0  0  0
   12.1311   -6.2378    0.0000 C   0  0  0  0  0  0  0  0  0  0  0  0
    7.1464  -10.7849    0.0000 C   0  0  0  0  0  0  0  0  0  0  0  0
    5.7169   -9.9597    0.0000 C   0  0  0  0  0  0  0  0  0  0  0  0
    8.5760   -9.9472    0.0000 C   0  0  0  0  0  0  0  0  0  0  0  0
   10.7057   -7.0589    0.0000 C   0  0  0  0  0  0  0  0  0  0  0  0
   12.8396   -5.0000    0.0000 O   0  0  0  0  0  0  0  0  0  0  0  0
   12.8396   -6.6504    0.0000 O   0  0  0  0  0  0  0  0  0  0  0  0
    9.2762   -7.0630    0.0000 C   0  0  0  0  0  0  0  0  0  0  0  0
    9.9889   -8.3009    0.0000 C   0  0  0  0  0  0  0  0  0  0  0  0
    9.2887  -11.1808    0.0000 N   0  0  0  0  0  0  0  0  0  0  0  0
   11.4101   -5.8252    0.0000 C   0  0  0  0  0  0  0  0  0  0  0  0
   12.1311   -7.0630    0.0000 C   0  0  0  0  0  0  0  0  0  0  0  0
   10.6974   -6.2420    0.0000 C   0  0  0  0  0  0  0  0  0  0  0  0
   11.4143   -7.4756    0.0000 C   0  0  0  0  0  0  0  0  0  0  0  0
    8.5593   -7.4756    0.0000 C   0  0  0  0  0  0  0  0  0  0  0  0
    9.2803   -8.7093    0.0000 C   0  0  0  0  0  0  0  0  0  0  0  0
    8.5676   -8.2967    0.0000 C   0  0  0  0  0  0  0  0  0  0  0  0
    5.7169  -10.7849    0.0000 C   0  0  0  0  0  0  0  0  0  0  0  0
    6.4254   -8.7177    0.0000 F   0  0  0  0  0  0  0  0  0  0  0  0
    6.4296  -11.1975    0.0000 C   0  0  0  0  0  0  0  0  0  0  0  0
   13.5607   -6.2378    0.0000 C   0  0  0  0  0  0  0  0  0  0  0  0
    5.0000  -11.1975    0.0000 Cl  0  0  0  0  0  0  0  0  0  0  0  0
    8.5760  -10.7724    0.0000 C   0  0  0  0  0  0  0  0  0  0  0  0
    9.2803   -9.5304    0.0000 C   0  0  0  0  0  0  0  0  0  0  0  0
   10.0055  -10.7640    0.0000 C   0  0  0  0  0  0  0  0  0  0  0  0
    9.9972   -9.9347    0.0000 C   0  0  0  0  0  0  0  0  0  0  0  0
  2  3  1  0  0  0  0
  3  6  1  0  0  0  0
  4 11  1  0  0  0  0
  5  2  2  0  0  0  0
  6 23  1  0  0  0  0
  7  1  1  0  0  0  0
  8  2  1  0  0  0  0
  9  5  1  0  0  0  0
 10  3  1  0  0  0  0
 11 19  1  0  0  0  0
 12  1  2  0  0  0  0
 13  1  2  0  0  0  0
 14  4  1  0  0  0  0
 15  4  1  0  0  0  0
 16 29  1  0  0  0  0
 17  7  1  0  0  0  0
 18  7  2  0  0  0  0
 19 17  2  0  0  0  0
 20 18  1  0  0  0  0
 21 14  1  0  0  0  0
 22 15  1  0  0  0  0
 23 21  1  0  0  0  0
 24  9  2  0  0  0  0
 25  5  1  0  0  0  0
 26  8  2  0  0  0  0
 27  1  1  0  0  0  0
 28 24  1  0  0  0  0
 29 10  2  0  0  0  0
 30 10  1  0  0  0  0
 31 32  1  0  0  0  0
 32 30  2  0  0  0  0
 20 11  2  0  0  0  0
 22 23  1  0  0  0  0
 26 24  1  0  0  0  0
 31 16  2  0  0  0  0
M  END
> <Molecule Name>
DNDI1677865

> <CDD Number>
CDD-1535850

> <IC50_uM>
0.0039496835316263 ร/รท 1.80636519868958 (n=2)

$$$$

SketchEl molfile

 30 33  0  0  0  0  0  0  0  0999 V2000
    6.3050   -9.9574    0.0000 C   0  0  0  0  0  0  0  0  0  0  0  0
    5.0000  -10.2409    0.0000 N   0  0  0  0  0  0  0  0  0  0  0  0
   12.0045   -5.8255    0.0000 C   0  0  0  0  0  0  0  0  0  0  0  0
    6.2216  -10.7787    0.0000 C   0  0  0  0  0  0  0  0  0  0  0  0
    7.0180   -9.5404    0.0000 C   0  0  0  0  0  0  0  0  0  0  0  0
    5.4128  -10.9538    0.0000 N   0  0  0  0  0  0  0  0  0  0  0  0
    9.1527   -7.4724    0.0000 N   0  0  0  0  0  0  0  0  0  0  0  0
    5.5504   -9.6238    0.0000 C   0  0  0  0  0  0  0  0  0  0  0  0
    7.0138   -8.7149    0.0000 N   0  0  0  0  0  0  0  0  0  0  0  0
   11.2916   -6.2383    0.0000 C   0  0  0  0  0  0  0  0  0  0  0  0
    9.8656   -7.0597    0.0000 C   0  0  0  0  0  0  0  0  0  0  0  0
    7.7351   -9.9490    0.0000 C   0  0  0  0  0  0  0  0  0  0  0  0
    8.4356   -7.0638    0.0000 C   0  0  0  0  0  0  0  0  0  0  0  0
    9.1485   -8.3021    0.0000 C   0  0  0  0  0  0  0  0  0  0  0  0
    8.4481  -11.1832    0.0000 N   0  0  0  0  0  0  0  0  0  0  0  0
   10.5703   -5.8255    0.0000 C   0  0  0  0  0  0  0  0  0  0  0  0
   11.2916   -7.0638    0.0000 C   0  0  0  0  0  0  0  0  0  0  0  0
    9.8573   -6.2425    0.0000 C   0  0  0  0  0  0  0  0  0  0  0  0
   10.5744   -7.4766    0.0000 C   0  0  0  0  0  0  0  0  0  0  0  0
   12.0045   -5.0000    0.0000 F   0  0  0  0  0  0  0  0  0  0  0  0
   12.2213   -6.6219    0.0000 F   0  0  0  0  0  0  0  0  0  0  0  0
   12.7217   -6.2383    0.0000 F   0  0  0  0  0  0  0  0  0  0  0  0
    8.4397   -8.7107    0.0000 C   0  0  0  0  0  0  0  0  0  0  0  0
    7.7184   -7.4766    0.0000 C   0  0  0  0  0  0  0  0  0  0  0  0
    7.7268   -8.2980    0.0000 C   0  0  0  0  0  0  0  0  0  0  0  0
    7.7351  -10.7746    0.0000 C   0  0  0  0  0  0  0  0  0  0  0  0
    5.0834  -11.7085    0.0000 C   0  0  0  0  0  0  0  0  0  0  0  0
    8.4397   -9.5321    0.0000 C   0  0  0  0  0  0  0  0  0  0  0  0
    9.1652  -10.7662    0.0000 C   0  0  0  0  0  0  0  0  0  0  0  0
    9.1568   -9.9365    0.0000 C   0  0  0  0  0  0  0  0  0  0  0  0
  2  8  2  0  0  0  0
  3 10  1  0  0  0  0
  4  1  2  0  0  0  0
  5  1  1  0  0  0  0
  6  4  1  0  0  0  0
  7 13  1  0  0  0  0
  8  1  1  0  0  0  0
  9  5  1  0  0  0  0
 10 16  1  0  0  0  0
 11  7  1  0  0  0  0
 12  5  1  0  0  0  0
 13 24  1  0  0  0  0
 14 23  1  0  0  0  0
 15 26  1  0  0  0  0
 16 18  2  0  0  0  0
 17 19  1  0  0  0  0
 18 11  1  0  0  0  0
 19 11  2  0  0  0  0
 20  3  1  0  0  0  0
 21  3  1  0  0  0  0
 22  3  1  0  0  0  0
 23 25  1  0  0  0  0
 24 25  1  0  0  0  0
 25  9  1  0  0  0  0
 26 12  2  0  0  0  0
 27  6  1  0  0  0  0
 28 12  1  0  0  0  0
 29 15  2  0  0  0  0
 30 28  2  0  0  0  0
  6  2  1  0  0  0  0
 30 29  1  0  0  0  0
  7 14  1  0  0  0  0
 10 17  2  0  0  0  0
M  END
> <Molecule Name>
DNDI1677866

> <CDD Number>
CDD-1535851

> <IC50_uM>
0.102 (n=1)

$$$$

SketchEl molfile

 26 28  0  0  0  0  0  0  0  0999 V2000
    9.9926   -6.2377    0.0000 N   0  0  0  0  0  0  0  0  0  0  0  0
    7.8589   -8.3048    0.0000 C   0  0  0  0  0  0  0  0  0  0  0  0
    7.8547   -7.4796    0.0000 N   0  0  0  0  0  0  0  0  0  0  0  0
   10.7052   -5.8251    0.0000 C   0  0  0  0  0  0  0  0  0  0  0  0
    8.5757   -8.7132    0.0000 C   0  0  0  0  0  0  0  0  0  0  0  0
    7.1462   -8.7215    0.0000 C   0  0  0  0  0  0  0  0  0  0  0  0
   11.4220   -6.2377    0.0000 C   0  0  0  0  0  0  0  0  0  0  0  0
    9.9884   -7.0670    0.0000 C   0  0  0  0  0  0  0  0  0  0  0  0
    9.2758   -5.8293    0.0000 C   0  0  0  0  0  0  0  0  0  0  0  0
    9.2883   -9.9467    0.0000 N   0  0  0  0  0  0  0  0  0  0  0  0
   11.4220   -7.0629    0.0000 O   0  0  0  0  0  0  0  0  0  0  0  0
    9.2800   -7.4754    0.0000 C   0  0  0  0  0  0  0  0  0  0  0  0
    8.5590   -6.2419    0.0000 C   0  0  0  0  0  0  0  0  0  0  0  0
    8.5673   -7.0629    0.0000 C   0  0  0  0  0  0  0  0  0  0  0  0
    6.4294   -8.3089    0.0000 C   0  0  0  0  0  0  0  0  0  0  0  0
    7.1462   -9.5508    0.0000 C   0  0  0  0  0  0  0  0  0  0  0  0
    5.7168   -9.5508    0.0000 C   0  0  0  0  0  0  0  0  0  0  0  0
    5.7168   -8.7257    0.0000 C   0  0  0  0  0  0  0  0  0  0  0  0
    6.4294   -9.9634    0.0000 C   0  0  0  0  0  0  0  0  0  0  0  0
    8.5757   -9.5383    0.0000 C   0  0  0  0  0  0  0  0  0  0  0  0
    5.0000   -9.9634    0.0000 Cl  0  0  0  0  0  0  0  0  0  0  0  0
    9.2800   -8.2964    0.0000 C   0  0  0  0  0  0  0  0  0  0  0  0
   10.0051   -9.5300    0.0000 C   0  0  0  0  0  0  0  0  0  0  0  0
   10.7052   -5.0000    0.0000 C   0  0  0  0  0  0  0  0  0  0  0  0
   12.1346   -5.8251    0.0000 C   0  0  0  0  0  0  0  0  0  0  0  0
    9.9968   -8.7007    0.0000 C   0  0  0  0  0  0  0  0  0  0  0  0
  2  3  1  0  0  0  0
  3 14  1  0  0  0  0
  4  1  1  0  0  0  0
  5  2  1  0  0  0  0
  6  2  1  0  0  0  0
  7  4  1  0  0  0  0
  8  1  1  0  0  0  0
  9  1  1  0  0  0  0
 10 20  1  0  0  0  0
 11  7  2  0  0  0  0
 12  8  1  0  0  0  0
 13  9  1  0  0  0  0
 14 13  1  0  0  0  0
 15  6  2  0  0  0  0
 16  6  1  0  0  0  0
 17 18  2  0  0  0  0
 18 15  1  0  0  0  0
 19 16  2  0  0  0  0
 20  5  2  0  0  0  0
 21 17  1  0  0  0  0
 22  5  1  0  0  0  0
 23 26  1  0  0  0  0
 24  4  1  0  0  0  0
 25  7  1  0  0  0  0
 26 22  2  0  0  0  0
 12 14  1  0  0  0  0
 19 17  1  0  0  0  0
 23 10  2  0  0  0  0
M  END
> <Molecule Name>
DNDI1684753

> <CDD Number>
CDD-1535852

> <IC50_uM>
0.0423 (n=1)

$$$$

SketchEl molfile

 32 35  0  0  0  0  0  0  0  0999 V2000
   11.3662   -6.4540    0.0000 C   0  0  0  0  0  0  0  0  0  0  0  0
   10.7038   -6.9373    0.0000 C   0  0  0  0  0  0  0  0  0  0  0  0
   11.1121   -5.6666    0.0000 N   0  0  0  0  0  0  0  0  0  0  0  0
   12.1537   -6.7040    0.0000 C   0  0  0  0  0  0  0  0  0  0  0  0
   10.2871   -5.6666    0.0000 N   0  0  0  0  0  0  0  0  0  0  0  0
   10.0330   -6.4540    0.0000 C   0  0  0  0  0  0  0  0  0  0  0  0
   10.7038   -7.7623    0.0000 C   0  0  0  0  0  0  0  0  0  0  0  0
    7.8581  -10.2413    0.0000 C   0  0  0  0  0  0  0  0  0  0  0  0
    9.9913   -8.1748    0.0000 N   0  0  0  0  0  0  0  0  0  0  0  0
    7.8540   -9.4163    0.0000 N   0  0  0  0  0  0  0  0  0  0  0  0
    8.5748  -10.6496    0.0000 C   0  0  0  0  0  0  0  0  0  0  0  0
    7.1457  -10.6579    0.0000 C   0  0  0  0  0  0  0  0  0  0  0  0
    9.2872  -11.8828    0.0000 N   0  0  0  0  0  0  0  0  0  0  0  0
   12.3245   -7.5123    0.0000 F   0  0  0  0  0  0  0  0  0  0  0  0
   12.7620   -6.1499    0.0000 F   0  0  0  0  0  0  0  0  0  0  0  0
   11.7037   -7.3998    0.0000 F   0  0  0  0  0  0  0  0  0  0  0  0
    8.5664   -8.9997    0.0000 C   0  0  0  0  0  0  0  0  0  0  0  0
    7.1457  -11.4870    0.0000 C   0  0  0  0  0  0  0  0  0  0  0  0
    6.4291  -10.2454    0.0000 C   0  0  0  0  0  0  0  0  0  0  0  0
    8.5581   -8.1789    0.0000 C   0  0  0  0  0  0  0  0  0  0  0  0
    9.2789   -9.4122    0.0000 C   0  0  0  0  0  0  0  0  0  0  0  0
    9.9872   -9.0039    0.0000 C   0  0  0  0  0  0  0  0  0  0  0  0
    9.2747   -7.7664    0.0000 C   0  0  0  0  0  0  0  0  0  0  0  0
    5.7166  -11.4870    0.0000 C   0  0  0  0  0  0  0  0  0  0  0  0
    6.4291  -11.8995    0.0000 C   0  0  0  0  0  0  0  0  0  0  0  0
    5.7166  -10.6579    0.0000 C   0  0  0  0  0  0  0  0  0  0  0  0
    8.5748  -11.4745    0.0000 C   0  0  0  0  0  0  0  0  0  0  0  0
    5.0000  -11.8995    0.0000 Cl  0  0  0  0  0  0  0  0  0  0  0  0
    9.8038   -5.0000    0.0000 C   0  0  0  0  0  0  0  0  0  0  0  0
    9.2789  -10.2329    0.0000 C   0  0  0  0  0  0  0  0  0  0  0  0
   10.0038  -11.4662    0.0000 C   0  0  0  0  0  0  0  0  0  0  0  0
    9.9955  -10.6371    0.0000 C   0  0  0  0  0  0  0  0  0  0  0  0
  2  1  1  0  0  0  0
  3  1  2  0  0  0  0
  4  1  1  0  0  0  0
  5  3  1  0  0  0  0
  6  2  2  0  0  0  0
  7  2  1  0  0  0  0
  8 10  1  0  0  0  0
  9  7  1  0  0  0  0
 10 17  1  0  0  0  0
 11  8  1  0  0  0  0
 12  8  1  0  0  0  0
 13 27  1  0  0  0  0
 14  4  1  0  0  0  0
 15  4  1  0  0  0  0
 16  4  1  0  0  0  0
 17 20  1  0  0  0  0
 18 12  1  0  0  0  0
 19 12  2  0  0  0  0
 20 23  1  0  0  0  0
 21 22  1  0  0  0  0
 22  9  1  0  0  0  0
 23  9  1  0  0  0  0
 24 26  2  0  0  0  0
 25 18  2  0  0  0  0
 26 19  1  0  0  0  0
 27 11  2  0  0  0  0
 28 24  1  0  0  0  0
 29  5  1  0  0  0  0
 30 11  1  0  0  0  0
 31 32  1  0  0  0  0
 32 30  2  0  0  0  0
  6  5  1  0  0  0  0
 21 17  1  0  0  0  0
 25 24  1  0  0  0  0
 31 13  2  0  0  0  0
M  END
> <Molecule Name>
DNDI1684754

> <CDD Number>
CDD-1535853

> <IC50_uM>
0.052 (n=1)

$$$$

SketchEl molfile

 25 27  0  0  0  0  0  0  0  0999 V2000
    9.9916   -6.2375    0.0000 N   0  0  0  0  0  0  0  0  0  0  0  0
    7.8583   -8.3042    0.0000 C   0  0  0  0  0  0  0  0  0  0  0  0
    7.8541   -7.4792    0.0000 N   0  0  0  0  0  0  0  0  0  0  0  0
   10.7041   -5.8250    0.0000 C   0  0  0  0  0  0  0  0  0  0  0  0
    8.5750   -8.7125    0.0000 C   0  0  0  0  0  0  0  0  0  0  0  0
    7.1458   -8.7208    0.0000 C   0  0  0  0  0  0  0  0  0  0  0  0
    9.2750   -5.8292    0.0000 C   0  0  0  0  0  0  0  0  0  0  0  0
    9.9875   -7.0667    0.0000 C   0  0  0  0  0  0  0  0  0  0  0  0
    9.2875   -9.9458    0.0000 N   0  0  0  0  0  0  0  0  0  0  0  0
    8.5583   -6.2417    0.0000 C   0  0  0  0  0  0  0  0  0  0  0  0
    9.2791   -7.4750    0.0000 C   0  0  0  0  0  0  0  0  0  0  0  0
    8.5666   -7.0625    0.0000 C   0  0  0  0  0  0  0  0  0  0  0  0
    6.4292   -8.3083    0.0000 C   0  0  0  0  0  0  0  0  0  0  0  0
    7.1458   -9.5500    0.0000 C   0  0  0  0  0  0  0  0  0  0  0  0
    5.7167   -9.5500    0.0000 C   0  0  0  0  0  0  0  0  0  0  0  0
    5.7167   -8.7250    0.0000 C   0  0  0  0  0  0  0  0  0  0  0  0
    6.4292   -9.9625    0.0000 C   0  0  0  0  0  0  0  0  0  0  0  0
    8.5750   -9.5375    0.0000 C   0  0  0  0  0  0  0  0  0  0  0  0
    5.0000   -9.9625    0.0000 Cl  0  0  0  0  0  0  0  0  0  0  0  0
   11.4208   -6.2375    0.0000 C   0  0  0  0  0  0  0  0  0  0  0  0
   10.7041   -5.0000    0.0000 C   0  0  0  0  0  0  0  0  0  0  0  0
   10.9166   -6.6250    0.0000 C   0  0  0  0  0  0  0  0  0  0  0  0
    9.2791   -8.2958    0.0000 C   0  0  0  0  0  0  0  0  0  0  0  0
   10.0041   -9.5292    0.0000 C   0  0  0  0  0  0  0  0  0  0  0  0
    9.9958   -8.7000    0.0000 C   0  0  0  0  0  0  0  0  0  0  0  0
  2  3  1  0  0  0  0
  3 12  1  0  0  0  0
  4  1  1  0  0  0  0
  5  2  1  0  0  0  0
  6  2  1  0  0  0  0
  7  1  1  0  0  0  0
  8  1  1  0  0  0  0
  9 18  1  0  0  0  0
 10  7  1  0  0  0  0
 11  8  1  0  0  0  0
 12 10  1  0  0  0  0
 13  6  2  0  0  0  0
 14  6  1  0  0  0  0
 15 16  2  0  0  0  0
 16 13  1  0  0  0  0
 17 14  2  0  0  0  0
 18  5  2  0  0  0  0
 19 15  1  0  0  0  0
 20  4  1  0  0  0  0
 21  4  1  0  0  0  0
 22  4  1  0  0  0  0
 23  5  1  0  0  0  0
 24  9  2  0  0  0  0
 25 23  2  0  0  0  0
 11 12  1  0  0  0  0
 25 24  1  0  0  0  0
 17 15  1  0  0  0  0
M  END
> <Molecule Name>
DNDI1695339

> <CDD Number>
CDD-1535854

> <IC50_uM>
3.06 (n=1)

$$$$

SketchEl molfile

 26 28  0  0  0  0  0  0  0  0999 V2000
    7.8589   -7.8630    0.0000 C   0  0  0  0  0  0  0  0  0  0  0  0
    9.9926   -5.7960    0.0000 N   0  0  0  0  0  0  0  0  0  0  0  0
    7.8547   -7.0379    0.0000 N   0  0  0  0  0  0  0  0  0  0  0  0
    8.5757   -8.2715    0.0000 C   0  0  0  0  0  0  0  0  0  0  0  0
    7.1462   -8.2798    0.0000 C   0  0  0  0  0  0  0  0  0  0  0  0
    9.2883   -9.5050    0.0000 N   0  0  0  0  0  0  0  0  0  0  0  0
   10.7053   -5.3834    0.0000 C   0  0  0  0  0  0  0  0  0  0  0  0
   11.4221   -5.7960    0.0000 C   0  0  0  0  0  0  0  0  0  0  0  0
    8.5674   -6.6211    0.0000 C   0  0  0  0  0  0  0  0  0  0  0  0
    7.1462   -9.1091    0.0000 C   0  0  0  0  0  0  0  0  0  0  0  0
    6.4294   -7.8672    0.0000 C   0  0  0  0  0  0  0  0  0  0  0  0
    9.2800   -7.0337    0.0000 C   0  0  0  0  0  0  0  0  0  0  0  0
    8.5590   -5.8001    0.0000 C   0  0  0  0  0  0  0  0  0  0  0  0
    9.2758   -5.3876    0.0000 C   0  0  0  0  0  0  0  0  0  0  0  0
    9.9885   -6.6253    0.0000 C   0  0  0  0  0  0  0  0  0  0  0  0
    5.7168   -9.1091    0.0000 C   0  0  0  0  0  0  0  0  0  0  0  0
    6.4294   -9.5217    0.0000 C   0  0  0  0  0  0  0  0  0  0  0  0
    5.7168   -8.2840    0.0000 C   0  0  0  0  0  0  0  0  0  0  0  0
    8.5757   -9.0966    0.0000 C   0  0  0  0  0  0  0  0  0  0  0  0
    5.0000   -9.5217    0.0000 Cl  0  0  0  0  0  0  0  0  0  0  0  0
   12.1347   -5.3834    0.0000 O   0  0  0  0  0  0  0  0  0  0  0  0
    9.2800   -7.8547    0.0000 C   0  0  0  0  0  0  0  0  0  0  0  0
   10.0051   -9.0883    0.0000 C   0  0  0  0  0  0  0  0  0  0  0  0
   11.4221   -6.6211    0.0000 C   0  0  0  0  0  0  0  0  0  0  0  0
   11.2054   -5.0000    0.0000 C   0  0  0  0  0  0  0  0  0  0  0  0
    9.9968   -8.2590    0.0000 C   0  0  0  0  0  0  0  0  0  0  0  0
  2 14  1  0  0  0  0
  3  1  1  0  0  0  0
  4  1  1  0  0  0  0
  5  1  1  0  0  0  0
  6 19  1  0  0  0  0
  7  2  1  0  0  0  0
  8  7  1  0  0  0  0
  9  3  1  0  0  0  0
 10  5  1  0  0  0  0
 11  5  2  0  0  0  0
 12  9  1  0  0  0  0
 13  9  1  0  0  0  0
 14 13  1  0  0  0  0
 15 12  1  0  0  0  0
 16 18  2  0  0  0  0
 17 10  2  0  0  0  0
 18 11  1  0  0  0  0
 19  4  2  0  0  0  0
 20 16  1  0  0  0  0
 21  8  1  0  0  0  0
 22  4  1  0  0  0  0
 23  6  2  0  0  0  0
 24  8  1  0  0  0  0
 25  8  1  0  0  0  0
 26 22  2  0  0  0  0
 26 23  1  0  0  0  0
 17 16  1  0  0  0  0
  2 15  1  0  0  0  0
M  END
> <Molecule Name>
DNDI1695340

> <CDD Number>
CDD-1535855

> <IC50_uM>
0.565 (n=1)

$$$$

SketchEl molfile

 31 34  0  0  0  0  0  0  0  0999 V2000
   12.8434   -5.8252    0.0000 C   0  0  0  0  0  0  0  0  0  0  0  0
    9.9927   -7.4714    0.0000 N   0  0  0  0  0  0  0  0  0  0  0  0
   11.4097   -5.8252    0.0000 N   0  0  0  0  0  0  0  0  0  0  0  0
    7.8590   -9.5385    0.0000 C   0  0  0  0  0  0  0  0  0  0  0  0
   12.1307   -6.2378    0.0000 C   0  0  0  0  0  0  0  0  0  0  0  0
    7.8548   -8.7133    0.0000 N   0  0  0  0  0  0  0  0  0  0  0  0
   10.7054   -7.0588    0.0000 C   0  0  0  0  0  0  0  0  0  0  0  0
    8.5758   -9.9469    0.0000 C   0  0  0  0  0  0  0  0  0  0  0  0
    7.1463   -9.9553    0.0000 C   0  0  0  0  0  0  0  0  0  0  0  0
   10.6971   -6.2420    0.0000 C   0  0  0  0  0  0  0  0  0  0  0  0
    9.2759   -7.0630    0.0000 C   0  0  0  0  0  0  0  0  0  0  0  0
    9.9886   -8.3007    0.0000 C   0  0  0  0  0  0  0  0  0  0  0  0
    9.2884  -11.1805    0.0000 N   0  0  0  0  0  0  0  0  0  0  0  0
   12.1307   -7.0630    0.0000 C   0  0  0  0  0  0  0  0  0  0  0  0
   11.4139   -7.4756    0.0000 C   0  0  0  0  0  0  0  0  0  0  0  0
   13.5602   -6.2378    0.0000 F   0  0  0  0  0  0  0  0  0  0  0  0
   12.8434   -5.0000    0.0000 F   0  0  0  0  0  0  0  0  0  0  0  0
   13.0601   -6.6212    0.0000 F   0  0  0  0  0  0  0  0  0  0  0  0
    9.2801   -8.7092    0.0000 C   0  0  0  0  0  0  0  0  0  0  0  0
    8.5591   -7.4756    0.0000 C   0  0  0  0  0  0  0  0  0  0  0  0
    8.5674   -8.2966    0.0000 C   0  0  0  0  0  0  0  0  0  0  0  0
    7.1463  -10.7846    0.0000 C   0  0  0  0  0  0  0  0  0  0  0  0
    6.4295   -9.5427    0.0000 C   0  0  0  0  0  0  0  0  0  0  0  0
    5.7168  -10.7846    0.0000 C   0  0  0  0  0  0  0  0  0  0  0  0
    6.4295  -11.1972    0.0000 C   0  0  0  0  0  0  0  0  0  0  0  0
    5.7168   -9.9553    0.0000 C   0  0  0  0  0  0  0  0  0  0  0  0
    8.5758  -10.7721    0.0000 C   0  0  0  0  0  0  0  0  0  0  0  0
    5.0000  -11.1972    0.0000 Cl  0  0  0  0  0  0  0  0  0  0  0  0
    9.2801   -9.5302    0.0000 C   0  0  0  0  0  0  0  0  0  0  0  0
   10.0053  -10.7638    0.0000 C   0  0  0  0  0  0  0  0  0  0  0  0
    9.9969   -9.9344    0.0000 C   0  0  0  0  0  0  0  0  0  0  0  0
  2  7  1  0  0  0  0
  3  5  1  0  0  0  0
  4  6  1  0  0  0  0
  5  1  1  0  0  0  0
  6 21  1  0  0  0  0
  7 10  1  0  0  0  0
  8  4  1  0  0  0  0
  9  4  1  0  0  0  0
 10  3  2  0  0  0  0
 11  2  1  0  0  0  0
 12  2  1  0  0  0  0
 13 27  1  0  0  0  0
 14  5  2  0  0  0  0
 15 14  1  0  0  0  0
 16  1  1  0  0  0  0
 17  1  1  0  0  0  0
 18  1  1  0  0  0  0
 19 12  1  0  0  0  0
 20 11  1  0  0  0  0
 21 20  1  0  0  0  0
 22  9  1  0  0  0  0
 23  9  2  0  0  0  0
 24 26  2  0  0  0  0
 25 22  2  0  0  0  0
 26 23  1  0  0  0  0
 27  8  2  0  0  0  0
 28 24  1  0  0  0  0
 29  8  1  0  0  0  0
 30 13  2  0  0  0  0
 31 29  2  0  0  0  0
 15  7  2  0  0  0  0
 19 21  1  0  0  0  0
 25 24  1  0  0  0  0
 31 30  1  0  0  0  0
M  END
> <Molecule Name>
DNDI1695341

> <CDD Number>
CDD-1535856

> <IC50_uM>
0.00679705818718657 ร/รท 1.04248419778363 (n=2)

$$$$

SketchEl molfile

 26 28  0  0  0  0  0  0  0  0999 V2000
    9.9926   -6.2377    0.0000 N   0  0  0  0  0  0  0  0  0  0  0  0
    7.8589   -8.3048    0.0000 C   0  0  0  0  0  0  0  0  0  0  0  0
    7.8547   -7.4796    0.0000 N   0  0  0  0  0  0  0  0  0  0  0  0
   10.7052   -5.8251    0.0000 C   0  0  0  0  0  0  0  0  0  0  0  0
    8.5757   -8.7132    0.0000 C   0  0  0  0  0  0  0  0  0  0  0  0
    7.1462   -8.7215    0.0000 C   0  0  0  0  0  0  0  0  0  0  0  0
    9.2758   -5.8293    0.0000 C   0  0  0  0  0  0  0  0  0  0  0  0
    9.9884   -7.0670    0.0000 C   0  0  0  0  0  0  0  0  0  0  0  0
    9.2883   -9.9467    0.0000 N   0  0  0  0  0  0  0  0  0  0  0  0
    8.5590   -6.2419    0.0000 C   0  0  0  0  0  0  0  0  0  0  0  0
    9.2800   -7.4754    0.0000 C   0  0  0  0  0  0  0  0  0  0  0  0
    8.5673   -7.0629    0.0000 C   0  0  0  0  0  0  0  0  0  0  0  0
    6.4294   -8.3089    0.0000 C   0  0  0  0  0  0  0  0  0  0  0  0
    7.1462   -9.5508    0.0000 C   0  0  0  0  0  0  0  0  0  0  0  0
   11.4220   -6.2377    0.0000 C   0  0  0  0  0  0  0  0  0  0  0  0
    5.7168   -9.5508    0.0000 C   0  0  0  0  0  0  0  0  0  0  0  0
    6.4294   -9.9634    0.0000 C   0  0  0  0  0  0  0  0  0  0  0  0
    5.7168   -8.7257    0.0000 C   0  0  0  0  0  0  0  0  0  0  0  0
    8.5757   -9.5383    0.0000 C   0  0  0  0  0  0  0  0  0  0  0  0
    5.0000   -9.9634    0.0000 Cl  0  0  0  0  0  0  0  0  0  0  0  0
   12.1346   -5.8251    0.0000 O   0  0  0  0  0  0  0  0  0  0  0  0
    9.2800   -8.2964    0.0000 C   0  0  0  0  0  0  0  0  0  0  0  0
   10.0051   -9.5300    0.0000 C   0  0  0  0  0  0  0  0  0  0  0  0
   10.7010   -5.0000    0.0000 C   0  0  0  0  0  0  0  0  0  0  0  0
   11.4220   -7.0629    0.0000 C   0  0  0  0  0  0  0  0  0  0  0  0
    9.9968   -8.7007    0.0000 C   0  0  0  0  0  0  0  0  0  0  0  0
  2  3  1  0  0  0  0
  3 12  1  0  0  0  0
  4  1  1  0  0  0  0
  5  2  1  0  0  0  0
  6  2  1  0  0  0  0
  7  1  1  0  0  0  0
  8  1  1  0  0  0  0
  9 19  1  0  0  0  0
 10  7  1  0  0  0  0
 11  8  1  0  0  0  0
 12 10  1  0  0  0  0
 13  6  2  0  0  0  0
 14  6  1  0  0  0  0
 15  4  1  0  0  0  0
 16 18  2  0  0  0  0
 17 14  2  0  0  0  0
 18 13  1  0  0  0  0
 19  5  2  0  0  0  0
 20 16  1  0  0  0  0
 21 15  1  0  0  0  0
 22  5  1  0  0  0  0
 23  9  2  0  0  0  0
 24  4  1  0  0  0  0
 25 15  1  0  0  0  0
 26 22  2  0  0  0  0
 11 12  1  0  0  0  0
 26 23  1  0  0  0  0
 17 16  1  0  0  0  0
M  END
> <Molecule Name>
DNDI1695342

> <CDD Number>
CDD-1535857

> <IC50_uM>
1.81 (n=1)

$$$$

SketchEl molfile

 31 34  0  0  0  0  0  0  0  0999 V2000
    7.0627   -9.8842    0.0000 C   0  0  0  0  0  0  0  0  0  0  0  0
    5.7587  -10.1529    0.0000 N   0  0  0  0  0  0  0  0  0  0  0  0
   12.8202   -5.8259    0.0000 C   0  0  0  0  0  0  0  0  0  0  0  0
    6.9718  -10.7061    0.0000 C   0  0  0  0  0  0  0  0  0  0  0  0
    7.7819   -9.4772    0.0000 C   0  0  0  0  0  0  0  0  0  0  0  0
    6.1618  -10.8721    0.0000 N   0  0  0  0  0  0  0  0  0  0  0  0
    9.9434   -7.4421    0.0000 N   0  0  0  0  0  0  0  0  0  0  0  0
    6.3119   -9.5443    0.0000 C   0  0  0  0  0  0  0  0  0  0  0  0
    7.7898   -8.6552    0.0000 N   0  0  0  0  0  0  0  0  0  0  0  0
   12.1010   -6.2329    0.0000 C   0  0  0  0  0  0  0  0  0  0  0  0
   10.6665   -7.0391    0.0000 C   0  0  0  0  0  0  0  0  0  0  0  0
    8.4932   -9.8960    0.0000 C   0  0  0  0  0  0  0  0  0  0  0  0
    9.2361   -7.0232    0.0000 C   0  0  0  0  0  0  0  0  0  0  0  0
    9.9355   -8.2680    0.0000 C   0  0  0  0  0  0  0  0  0  0  0  0
    9.1926  -11.1368    0.0000 N   0  0  0  0  0  0  0  0  0  0  0  0
   11.3857   -5.8101    0.0000 C   0  0  0  0  0  0  0  0  0  0  0  0
   12.0931   -7.0588    0.0000 C   0  0  0  0  0  0  0  0  0  0  0  0
   10.6705   -6.2171    0.0000 C   0  0  0  0  0  0  0  0  0  0  0  0
   11.3739   -7.4619    0.0000 C   0  0  0  0  0  0  0  0  0  0  0  0
   13.5314   -6.2487    0.0000 F   0  0  0  0  0  0  0  0  0  0  0  0
   12.8281   -5.0000    0.0000 F   0  0  0  0  0  0  0  0  0  0  0  0
   13.0256   -6.6281    0.0000 F   0  0  0  0  0  0  0  0  0  0  0  0
    9.2203   -8.6710    0.0000 C   0  0  0  0  0  0  0  0  0  0  0  0
    8.5129   -7.4263    0.0000 C   0  0  0  0  0  0  0  0  0  0  0  0
    8.5050   -8.2482    0.0000 C   0  0  0  0  0  0  0  0  0  0  0  0
    8.4853  -10.7219    0.0000 C   0  0  0  0  0  0  0  0  0  0  0  0
    5.8219  -11.6229    0.0000 C   0  0  0  0  0  0  0  0  0  0  0  0
    9.2045   -9.4890    0.0000 C   0  0  0  0  0  0  0  0  0  0  0  0
    9.9118  -10.7298    0.0000 C   0  0  0  0  0  0  0  0  0  0  0  0
    5.0000  -11.7019    0.0000 C   0  0  0  0  0  0  0  0  0  0  0  0
    9.9157   -9.9000    0.0000 C   0  0  0  0  0  0  0  0  0  0  0  0
  2  8  2  0  0  0  0
  3 10  1  0  0  0  0
  4  1  2  0  0  0  0
  5  1  1  0  0  0  0
  6  4  1  0  0  0  0
  7 13  1  0  0  0  0
  8  1  1  0  0  0  0
  9  5  1  0  0  0  0
 10 16  1  0  0  0  0
 11  7  1  0  0  0  0
 12  5  1  0  0  0  0
 13 24  1  0  0  0  0
 14 23  1  0  0  0  0
 15 26  1  0  0  0  0
 16 18  2  0  0  0  0
 17 19  1  0  0  0  0
 18 11  1  0  0  0  0
 19 11  2  0  0  0  0
 20  3  1  0  0  0  0
 21  3  1  0  0  0  0
 22  3  1  0  0  0  0
 23 25  1  0  0  0  0
 24 25  1  0  0  0  0
 25  9  1  0  0  0  0
 26 12  2  0  0  0  0
 27  6  1  0  0  0  0
 28 12  1  0  0  0  0
 29 15  2  0  0  0  0
 30 27  1  0  0  0  0
 31 28  2  0  0  0  0
  6  2  1  0  0  0  0
 31 29  1  0  0  0  0
  7 14  1  0  0  0  0
 10 17  2  0  0  0  0
M  END
> <Molecule Name>
DNDI1697554

> <CDD Number>
CDD-1535858

> <IC50_uM>
0.0535 (n=1)

$$$$

SketchEl molfile

 32 35  0  0  0  0  0  0  0  0999 V2000
    7.0627   -9.8842    0.0000 C   0  0  0  0  0  0  0  0  0  0  0  0
    6.1618  -10.8721    0.0000 N   0  0  0  0  0  0  0  0  0  0  0  0
    5.7587  -10.1529    0.0000 N   0  0  0  0  0  0  0  0  0  0  0  0
    6.9719  -10.7061    0.0000 C   0  0  0  0  0  0  0  0  0  0  0  0
   12.8203   -5.8259    0.0000 C   0  0  0  0  0  0  0  0  0  0  0  0
    7.7819   -9.4772    0.0000 C   0  0  0  0  0  0  0  0  0  0  0  0
    6.3119   -9.5444    0.0000 C   0  0  0  0  0  0  0  0  0  0  0  0
    9.9474   -7.4421    0.0000 N   0  0  0  0  0  0  0  0  0  0  0  0
    7.7898   -8.6553    0.0000 N   0  0  0  0  0  0  0  0  0  0  0  0
   12.1011   -6.2329    0.0000 C   0  0  0  0  0  0  0  0  0  0  0  0
   10.6666   -7.0390    0.0000 C   0  0  0  0  0  0  0  0  0  0  0  0
    8.4932   -9.8961    0.0000 C   0  0  0  0  0  0  0  0  0  0  0  0
    9.2361   -7.0232    0.0000 C   0  0  0  0  0  0  0  0  0  0  0  0
    9.9356   -8.2680    0.0000 C   0  0  0  0  0  0  0  0  0  0  0  0
    9.1927  -11.1369    0.0000 N   0  0  0  0  0  0  0  0  0  0  0  0
    5.8219  -11.6229    0.0000 C   0  0  0  0  0  0  0  0  0  0  0  0
   11.3858   -5.8101    0.0000 C   0  0  0  0  0  0  0  0  0  0  0  0
   12.0932   -7.0588    0.0000 C   0  0  0  0  0  0  0  0  0  0  0  0
   10.6706   -6.2171    0.0000 C   0  0  0  0  0  0  0  0  0  0  0  0
   11.3740   -7.4619    0.0000 C   0  0  0  0  0  0  0  0  0  0  0  0
   13.5316   -6.2487    0.0000 F   0  0  0  0  0  0  0  0  0  0  0  0
   12.8282   -5.0000    0.0000 F   0  0  0  0  0  0  0  0  0  0  0  0
   13.0258   -6.6281    0.0000 F   0  0  0  0  0  0  0  0  0  0  0  0
    9.2203   -8.6711    0.0000 C   0  0  0  0  0  0  0  0  0  0  0  0
    8.5130   -7.4263    0.0000 C   0  0  0  0  0  0  0  0  0  0  0  0
    8.5051   -8.2482    0.0000 C   0  0  0  0  0  0  0  0  0  0  0  0
    8.4853  -10.7220    0.0000 C   0  0  0  0  0  0  0  0  0  0  0  0
    9.2045   -9.4890    0.0000 C   0  0  0  0  0  0  0  0  0  0  0  0
    9.9119  -10.7299    0.0000 C   0  0  0  0  0  0  0  0  0  0  0  0
    5.0000  -11.7020    0.0000 C   0  0  0  0  0  0  0  0  0  0  0  0
    6.3001  -12.2947    0.0000 C   0  0  0  0  0  0  0  0  0  0  0  0
    9.9158   -9.9000    0.0000 C   0  0  0  0  0  0  0  0  0  0  0  0
  2  4  1  0  0  0  0
  3  7  2  0  0  0  0
  4  1  2  0  0  0  0
  5 10  1  0  0  0  0
  6  1  1  0  0  0  0
  7  1  1  0  0  0  0
  8 13  1  0  0  0  0
  9  6  1  0  0  0  0
 10 17  1  0  0  0  0
 11  8  1  0  0  0  0
 12  6  1  0  0  0  0
 13 25  1  0  0  0  0
 14 24  1  0  0  0  0
 15 27  1  0  0  0  0
 16  2  1  0  0  0  0
 17 19  2  0  0  0  0
 18 20  1  0  0  0  0
 19 11  1  0  0  0  0
 20 11  2  0  0  0  0
 21  5  1  0  0  0  0
 22  5  1  0  0  0  0
 23  5  1  0  0  0  0
 24 26  1  0  0  0  0
 25 26  1  0  0  0  0
 26  9  1  0  0  0  0
 27 12  2  0  0  0  0
 28 12  1  0  0  0  0
 29 32  1  0  0  0  0
 30 16  1  0  0  0  0
 31 16  1  0  0  0  0
 32 28  2  0  0  0  0
  2  3  1  0  0  0  0
 29 15  2  0  0  0  0
  8 14  1  0  0  0  0
 10 18  2  0  0  0  0
M  END
> <Molecule Name>
DNDI1703785

> <CDD Number>
CDD-1535859

> <IC50_uM>
0.029 (n=1)

$$$$

SketchEl molfile

 31 34  0  0  0  0  0  0  0  0999 V2000
    7.0696   -9.8370    0.0000 C   0  0  0  0  0  0  0  0  0  0  0  0
   12.8463   -5.7652    0.0000 S   0  0  0  0  0  0  0  0  0  0  0  0
    5.7612  -10.1066    0.0000 N   0  0  0  0  0  0  0  0  0  0  0  0
    6.9784  -10.6617    0.0000 C   0  0  0  0  0  0  0  0  0  0  0  0
    7.7912   -9.4286    0.0000 C   0  0  0  0  0  0  0  0  0  0  0  0
    6.1656  -10.8282    0.0000 N   0  0  0  0  0  0  0  0  0  0  0  0
    9.9639   -7.3868    0.0000 N   0  0  0  0  0  0  0  0  0  0  0  0
    6.3163   -9.4960    0.0000 C   0  0  0  0  0  0  0  0  0  0  0  0
    7.7991   -8.6040    0.0000 N   0  0  0  0  0  0  0  0  0  0  0  0
   12.1247   -6.1735    0.0000 C   0  0  0  0  0  0  0  0  0  0  0  0
   10.6855   -6.9824    0.0000 C   0  0  0  0  0  0  0  0  0  0  0  0
    8.5049   -9.8489    0.0000 C   0  0  0  0  0  0  0  0  0  0  0  0
   13.4252   -6.3440    0.0000 O   0  0  0  0  0  0  0  0  0  0  0  0
   12.6401   -5.0000    0.0000 O   0  0  0  0  0  0  0  0  0  0  0  0
    9.2502   -6.9665    0.0000 C   0  0  0  0  0  0  0  0  0  0  0  0
    9.9520   -8.2154    0.0000 C   0  0  0  0  0  0  0  0  0  0  0  0
    9.2066  -11.0938    0.0000 N   0  0  0  0  0  0  0  0  0  0  0  0
   11.4071   -5.7493    0.0000 C   0  0  0  0  0  0  0  0  0  0  0  0
   12.1168   -7.0022    0.0000 C   0  0  0  0  0  0  0  0  0  0  0  0
   10.6895   -6.1577    0.0000 C   0  0  0  0  0  0  0  0  0  0  0  0
   11.3952   -7.4066    0.0000 C   0  0  0  0  0  0  0  0  0  0  0  0
    8.5247   -7.3709    0.0000 C   0  0  0  0  0  0  0  0  0  0  0  0
    9.2344   -8.6198    0.0000 C   0  0  0  0  0  0  0  0  0  0  0  0
    8.5168   -8.1956    0.0000 C   0  0  0  0  0  0  0  0  0  0  0  0
   13.6036   -5.5590    0.0000 C   0  0  0  0  0  0  0  0  0  0  0  0
    8.4969  -10.6775    0.0000 C   0  0  0  0  0  0  0  0  0  0  0  0
    5.8247  -11.5815    0.0000 C   0  0  0  0  0  0  0  0  0  0  0  0
    9.2185   -9.4405    0.0000 C   0  0  0  0  0  0  0  0  0  0  0  0
    9.9282  -10.6855    0.0000 C   0  0  0  0  0  0  0  0  0  0  0  0
    5.0000  -11.6608    0.0000 C   0  0  0  0  0  0  0  0  0  0  0  0
    9.9322   -9.8529    0.0000 C   0  0  0  0  0  0  0  0  0  0  0  0
  2 10  1  0  0  0  0
  3  8  2  0  0  0  0
  4  1  2  0  0  0  0
  5  1  1  0  0  0  0
  6  4  1  0  0  0  0
  7 15  1  0  0  0  0
  8  1  1  0  0  0  0
  9  5  1  0  0  0  0
 10 18  1  0  0  0  0
 11  7  1  0  0  0  0
 12  5  1  0  0  0  0
 13  2  2  0  0  0  0
 14  2  2  0  0  0  0
 15 22  1  0  0  0  0
 16 23  1  0  0  0  0
 17 26  1  0  0  0  0
 18 20  2  0  0  0  0
 19 21  1  0  0  0  0
 20 11  1  0  0  0  0
 21 11  2  0  0  0  0
 22 24  1  0  0  0  0
 23 24  1  0  0  0  0
 24  9  1  0  0  0  0
 25  2  1  0  0  0  0
 26 12  2  0  0  0  0
 27  6  1  0  0  0  0
 28 12  1  0  0  0  0
 29 17  2  0  0  0  0
 30 27  1  0  0  0  0
 31 28  2  0  0  0  0
  6  3  1  0  0  0  0
 31 29  1  0  0  0  0
  7 16  1  0  0  0  0
 10 19  2  0  0  0  0
M  END
> <Molecule Name>
DNDI1703786

> <CDD Number>
CDD-1535860

> <IC50_uM>
6.04 (n=1)

$$$$

SketchEl molfile

 32 35  0  0  0  0  0  0  0  0999 V2000
    7.0626   -9.4374    0.0000 C   0  0  0  0  0  0  0  0  0  0  0  0
    5.7587   -9.7061    0.0000 N   0  0  0  0  0  0  0  0  0  0  0  0
    6.9717  -10.2593    0.0000 C   0  0  0  0  0  0  0  0  0  0  0  0
    7.7818   -9.0304    0.0000 C   0  0  0  0  0  0  0  0  0  0  0  0
    6.1617  -10.4252    0.0000 N   0  0  0  0  0  0  0  0  0  0  0  0
    9.9432   -6.9954    0.0000 N   0  0  0  0  0  0  0  0  0  0  0  0
   13.5310   -5.8021    0.0000 C   0  0  0  0  0  0  0  0  0  0  0  0
    6.3119   -9.0975    0.0000 C   0  0  0  0  0  0  0  0  0  0  0  0
    7.7897   -8.2085    0.0000 N   0  0  0  0  0  0  0  0  0  0  0  0
   10.6663   -6.5924    0.0000 C   0  0  0  0  0  0  0  0  0  0  0  0
    8.4930   -9.4492    0.0000 C   0  0  0  0  0  0  0  0  0  0  0  0
   12.8198   -5.3793    0.0000 O   0  0  0  0  0  0  0  0  0  0  0  0
    9.2359   -6.5766    0.0000 C   0  0  0  0  0  0  0  0  0  0  0  0
    9.9353   -7.8213    0.0000 C   0  0  0  0  0  0  0  0  0  0  0  0
    9.1924  -10.6900    0.0000 N   0  0  0  0  0  0  0  0  0  0  0  0
    8.5128   -6.9796    0.0000 C   0  0  0  0  0  0  0  0  0  0  0  0
    9.2201   -8.2243    0.0000 C   0  0  0  0  0  0  0  0  0  0  0  0
    8.5049   -7.8015    0.0000 C   0  0  0  0  0  0  0  0  0  0  0  0
   11.3736   -7.0152    0.0000 C   0  0  0  0  0  0  0  0  0  0  0  0
   10.6702   -5.7705    0.0000 C   0  0  0  0  0  0  0  0  0  0  0  0
   14.2502   -5.3951    0.0000 F   0  0  0  0  0  0  0  0  0  0  0  0
   13.5231   -6.6279    0.0000 F   0  0  0  0  0  0  0  0  0  0  0  0
   13.3256   -5.0000    0.0000 F   0  0  0  0  0  0  0  0  0  0  0  0
   12.1006   -5.7863    0.0000 C   0  0  0  0  0  0  0  0  0  0  0  0
   12.0927   -6.6121    0.0000 C   0  0  0  0  0  0  0  0  0  0  0  0
   11.3854   -5.3635    0.0000 C   0  0  0  0  0  0  0  0  0  0  0  0
    8.4851  -10.2751    0.0000 C   0  0  0  0  0  0  0  0  0  0  0  0
    5.8219  -11.1760    0.0000 C   0  0  0  0  0  0  0  0  0  0  0  0
    9.2043   -9.0422    0.0000 C   0  0  0  0  0  0  0  0  0  0  0  0
    9.9116  -10.2830    0.0000 C   0  0  0  0  0  0  0  0  0  0  0  0
    5.0000  -11.2550    0.0000 C   0  0  0  0  0  0  0  0  0  0  0  0
    9.9155   -9.4532    0.0000 C   0  0  0  0  0  0  0  0  0  0  0  0
  2  8  2  0  0  0  0
  3  1  2  0  0  0  0
  4  1  1  0  0  0  0
  5  3  1  0  0  0  0
  6 13  1  0  0  0  0
  7 12  1  0  0  0  0
  8  1  1  0  0  0  0
  9  4  1  0  0  0  0
 10  6  1  0  0  0  0
 11  4  1  0  0  0  0
 12 24  1  0  0  0  0
 13 16  1  0  0  0  0
 14 17  1  0  0  0  0
 15 27  1  0  0  0  0
 16 18  1  0  0  0  0
 17 18  1  0  0  0  0
 18  9  1  0  0  0  0
 19 10  2  0  0  0  0
 20 10  1  0  0  0  0
 21  7  1  0  0  0  0
 22  7  1  0  0  0  0
 23  7  1  0  0  0  0
 24 26  1  0  0  0  0
 25 19  1  0  0  0  0
 26 20  2  0  0  0  0
 27 11  2  0  0  0  0
 28  5  1  0  0  0  0
 29 11  1  0  0  0  0
 30 32  1  0  0  0  0
 31 28  1  0  0  0  0
 32 29  2  0  0  0  0
  5  2  1  0  0  0  0
 30 15  2  0  0  0  0
  6 14  1  0  0  0  0
 24 25  2  0  0  0  0
M  END
> <Molecule Name>
DNDI1703787

> <CDD Number>
CDD-1535861

> <IC50_uM>
0.103 (n=1)

$$$$

SketchEl molfile

 36 40  0  0  0  0  0  0  0  0999 V2000
    8.6998   -9.8857    0.0000 C   0  0  0  0  0  0  0  0  0  0  0  0
    7.7986  -10.8738    0.0000 N   0  0  0  0  0  0  0  0  0  0  0  0
    7.3954  -10.1544    0.0000 N   0  0  0  0  0  0  0  0  0  0  0  0
    8.6089  -10.7078    0.0000 C   0  0  0  0  0  0  0  0  0  0  0  0
   14.4590   -5.8262    0.0000 C   0  0  0  0  0  0  0  0  0  0  0  0
    9.4192   -9.4785    0.0000 C   0  0  0  0  0  0  0  0  0  0  0  0
   11.5813   -7.4428    0.0000 N   0  0  0  0  0  0  0  0  0  0  0  0
    7.9488   -9.5457    0.0000 C   0  0  0  0  0  0  0  0  0  0  0  0
    9.4271   -8.6563    0.0000 N   0  0  0  0  0  0  0  0  0  0  0  0
   13.7396   -6.2333    0.0000 C   0  0  0  0  0  0  0  0  0  0  0  0
   12.3047   -7.0397    0.0000 C   0  0  0  0  0  0  0  0  0  0  0  0
   10.1307   -9.8975    0.0000 C   0  0  0  0  0  0  0  0  0  0  0  0
   10.8738   -7.0239    0.0000 C   0  0  0  0  0  0  0  0  0  0  0  0
   11.5734   -8.2690    0.0000 C   0  0  0  0  0  0  0  0  0  0  0  0
   10.8303  -11.1387    0.0000 N   0  0  0  0  0  0  0  0  0  0  0  0
    7.4586  -11.6249    0.0000 C   0  0  0  0  0  0  0  0  0  0  0  0
   13.0241   -5.8104    0.0000 C   0  0  0  0  0  0  0  0  0  0  0  0
   13.7316   -7.0594    0.0000 C   0  0  0  0  0  0  0  0  0  0  0  0
   12.3087   -6.2175    0.0000 C   0  0  0  0  0  0  0  0  0  0  0  0
   13.0122   -7.4626    0.0000 C   0  0  0  0  0  0  0  0  0  0  0  0
   15.1705   -6.2491    0.0000 F   0  0  0  0  0  0  0  0  0  0  0  0
   14.4669   -5.0000    0.0000 F   0  0  0  0  0  0  0  0  0  0  0  0
   14.6645   -6.6286    0.0000 F   0  0  0  0  0  0  0  0  0  0  0  0
   10.8580   -8.6722    0.0000 C   0  0  0  0  0  0  0  0  0  0  0  0
   10.1504   -7.4270    0.0000 C   0  0  0  0  0  0  0  0  0  0  0  0
   10.1425   -8.2492    0.0000 C   0  0  0  0  0  0  0  0  0  0  0  0
   10.1228  -10.7236    0.0000 C   0  0  0  0  0  0  0  0  0  0  0  0
    6.6364  -11.7039    0.0000 C   0  0  0  0  0  0  0  0  0  0  0  0
   10.8422   -9.4904    0.0000 C   0  0  0  0  0  0  0  0  0  0  0  0
   11.5497  -10.7315    0.0000 C   0  0  0  0  0  0  0  0  0  0  0  0
    6.3005  -12.4510    0.0000 C   0  0  0  0  0  0  0  0  0  0  0  0
    6.1621  -11.0320    0.0000 C   0  0  0  0  0  0  0  0  0  0  0  0
   11.5537   -9.9015    0.0000 C   0  0  0  0  0  0  0  0  0  0  0  0
    5.3399  -11.1110    0.0000 C   0  0  0  0  0  0  0  0  0  0  0  0
    5.4822  -12.5340    0.0000 C   0  0  0  0  0  0  0  0  0  0  0  0
    5.0000  -11.8620    0.0000 C   0  0  0  0  0  0  0  0  0  0  0  0
  2  4  1  0  0  0  0
  3  8  2  0  0  0  0
  4  1  2  0  0  0  0
  5 10  1  0  0  0  0
  6  1  1  0  0  0  0
  7 14  1  0  0  0  0
  8  1  1  0  0  0  0
  9  6  1  0  0  0  0
 10 17  1  0  0  0  0
 11  7  1  0  0  0  0
 12  6  1  0  0  0  0
 13 25  1  0  0  0  0
 14 24  1  0  0  0  0
 15 27  1  0  0  0  0
 16  2  1  0  0  0  0
 17 19  2  0  0  0  0
 18 20  1  0  0  0  0
 19 11  1  0  0  0  0
 20 11  2  0  0  0  0
 21  5  1  0  0  0  0
 22  5  1  0  0  0  0
 23  5  1  0  0  0  0
 24 26  1  0  0  0  0
 25 26  1  0  0  0  0
 26  9  1  0  0  0  0
 27 12  2  0  0  0  0
 28 16  1  0  0  0  0
 29 12  1  0  0  0  0
 30 33  1  0  0  0  0
 31 28  1  0  0  0  0
 32 28  2  0  0  0  0
 33 29  2  0  0  0  0
 34 32  1  0  0  0  0
 35 31  2  0  0  0  0
 36 35  1  0  0  0  0
  2  3  1  0  0  0  0
 30 15  2  0  0  0  0
 13  7  1  0  0  0  0
 36 34  2  0  0  0  0
 10 18  2  0  0  0  0
M  END
> <Molecule Name>
DNDI1703788

> <CDD Number>
CDD-1535862

> <IC50_uM>
0.006 (n=1)

$$$$

SketchEl molfile

 29 32  0  0  0  0  0  0  0  0999 V2000
    7.0635   -9.0755    0.0000 C   0  0  0  0  0  0  0  0  0  0  0  0
    5.7590   -9.3443    0.0000 N   0  0  0  0  0  0  0  0  0  0  0  0
    6.9725   -9.8978    0.0000 C   0  0  0  0  0  0  0  0  0  0  0  0
    7.7829   -8.6684    0.0000 C   0  0  0  0  0  0  0  0  0  0  0  0
    9.9491   -6.6326    0.0000 N   0  0  0  0  0  0  0  0  0  0  0  0
    6.1622  -10.0638    0.0000 N   0  0  0  0  0  0  0  0  0  0  0  0
    6.3124   -8.7356    0.0000 C   0  0  0  0  0  0  0  0  0  0  0  0
   10.6686   -6.2294    0.0000 C   0  0  0  0  0  0  0  0  0  0  0  0
   11.3761   -6.6524    0.0000 C   0  0  0  0  0  0  0  0  0  0  0  0
    7.7908   -7.8462    0.0000 N   0  0  0  0  0  0  0  0  0  0  0  0
   12.0956   -6.2492    0.0000 C   0  0  0  0  0  0  0  0  0  0  0  0
    8.4944   -9.0874    0.0000 C   0  0  0  0  0  0  0  0  0  0  0  0
   12.1035   -5.4230    0.0000 C   0  0  0  0  0  0  0  0  0  0  0  0
    9.9373   -7.4588    0.0000 C   0  0  0  0  0  0  0  0  0  0  0  0
    9.2376   -6.2136    0.0000 C   0  0  0  0  0  0  0  0  0  0  0  0
    9.1941  -10.3286    0.0000 N   0  0  0  0  0  0  0  0  0  0  0  0
   10.6725   -5.4072    0.0000 C   0  0  0  0  0  0  0  0  0  0  0  0
   11.3880   -5.0000    0.0000 C   0  0  0  0  0  0  0  0  0  0  0  0
    9.2218   -7.8620    0.0000 C   0  0  0  0  0  0  0  0  0  0  0  0
    8.5142   -6.6168    0.0000 C   0  0  0  0  0  0  0  0  0  0  0  0
    8.5063   -7.4390    0.0000 C   0  0  0  0  0  0  0  0  0  0  0  0
   12.8032   -6.6682    0.0000 F   0  0  0  0  0  0  0  0  0  0  0  0
   12.8229   -5.0158    0.0000 F   0  0  0  0  0  0  0  0  0  0  0  0
    8.4865   -9.9136    0.0000 C   0  0  0  0  0  0  0  0  0  0  0  0
    5.8222  -10.8148    0.0000 C   0  0  0  0  0  0  0  0  0  0  0  0
    9.2060   -8.6802    0.0000 C   0  0  0  0  0  0  0  0  0  0  0  0
    9.9135   -9.9215    0.0000 C   0  0  0  0  0  0  0  0  0  0  0  0
    5.0000  -10.8939    0.0000 C   0  0  0  0  0  0  0  0  0  0  0  0
    9.9175   -9.0913    0.0000 C   0  0  0  0  0  0  0  0  0  0  0  0
  2  7  2  0  0  0  0
  3  1  2  0  0  0  0
  4  1  1  0  0  0  0
  5 15  1  0  0  0  0
  6  3  1  0  0  0  0
  7  1  1  0  0  0  0
  8  5  1  0  0  0  0
  9  8  2  0  0  0  0
 10  4  1  0  0  0  0
 11  9  1  0  0  0  0
 12  4  1  0  0  0  0
 13 18  1  0  0  0  0
 14 19  1  0  0  0  0
 15 20  1  0  0  0  0
 16 24  1  0  0  0  0
 17  8  1  0  0  0  0
 18 17  2  0  0  0  0
 19 21  1  0  0  0  0
 20 21  1  0  0  0  0
 21 10  1  0  0  0  0
 22 11  1  0  0  0  0
 23 13  1  0  0  0  0
 24 12  2  0  0  0  0
 25  6  1  0  0  0  0
 26 12  1  0  0  0  0
 27 16  2  0  0  0  0
 28 25  1  0  0  0  0
 29 26  2  0  0  0  0
  6  2  1  0  0  0  0
 29 27  1  0  0  0  0
  5 14  1  0  0  0  0
 13 11  2  0  0  0  0
M  END
> <Molecule Name>
DNDI1703789

> <CDD Number>
CDD-1535863

> <IC50_uM>
0.099 (n=1)

$$$$

SketchEl molfile

 34 37  0  0  0  0  0  0  0  0999 V2000
    7.5254   -9.9700    0.0000 C   0  0  0  0  0  0  0  0  0  0  0  0
   13.1993   -5.8038    0.0000 S   0  0  0  0  0  0  0  0  0  0  0  0
    6.6408  -10.9735    0.0000 N   0  0  0  0  0  0  0  0  0  0  0  0
    6.2223  -10.2649    0.0000 N   0  0  0  0  0  0  0  0  0  0  0  0
    7.4446  -10.7928    0.0000 C   0  0  0  0  0  0  0  0  0  0  0  0
    8.2341   -9.5515    0.0000 C   0  0  0  0  0  0  0  0  0  0  0  0
    5.4946  -11.8248    0.0000 C   0  0  0  0  0  0  0  0  0  0  0  0
   10.3552   -7.4684    0.0000 N   0  0  0  0  0  0  0  0  0  0  0  0
    6.7645   -9.6419    0.0000 C   0  0  0  0  0  0  0  0  0  0  0  0
    6.3126  -11.7297    0.0000 C   0  0  0  0  0  0  0  0  0  0  0  0
    8.2246   -8.7239    0.0000 N   0  0  0  0  0  0  0  0  0  0  0  0
   12.4859   -6.2223    0.0000 C   0  0  0  0  0  0  0  0  0  0  0  0
   11.0639   -7.0546    0.0000 C   0  0  0  0  0  0  0  0  0  0  0  0
    8.9522   -9.9557    0.0000 C   0  0  0  0  0  0  0  0  0  0  0  0
   13.0091   -5.0000    0.0000 O   0  0  0  0  0  0  0  0  0  0  0  0
   13.7510   -6.4078    0.0000 O   0  0  0  0  0  0  0  0  0  0  0  0
    9.6323   -7.0641    0.0000 C   0  0  0  0  0  0  0  0  0  0  0  0
   10.3600   -8.2959    0.0000 C   0  0  0  0  0  0  0  0  0  0  0  0
    9.6799  -11.1828    0.0000 N   0  0  0  0  0  0  0  0  0  0  0  0
   11.7630   -5.8133    0.0000 C   0  0  0  0  0  0  0  0  0  0  0  0
   12.4907   -7.0498    0.0000 C   0  0  0  0  0  0  0  0  0  0  0  0
   11.0544   -6.2318    0.0000 C   0  0  0  0  0  0  0  0  0  0  0  0
   11.7820   -7.4636    0.0000 C   0  0  0  0  0  0  0  0  0  0  0  0
    8.9189   -7.4826    0.0000 C   0  0  0  0  0  0  0  0  0  0  0  0
    9.6513   -8.7144    0.0000 C   0  0  0  0  0  0  0  0  0  0  0  0
    8.9332   -8.3054    0.0000 C   0  0  0  0  0  0  0  0  0  0  0  0
    5.0000  -11.1638    0.0000 F   0  0  0  0  0  0  0  0  0  0  0  0
    6.1414  -12.3385    0.0000 F   0  0  0  0  0  0  0  0  0  0  0  0
    5.1665  -12.5858    0.0000 F   0  0  0  0  0  0  0  0  0  0  0  0
   13.8937   -5.3615    0.0000 C   0  0  0  0  0  0  0  0  0  0  0  0
    8.9617  -10.7785    0.0000 C   0  0  0  0  0  0  0  0  0  0  0  0
    9.6561   -9.5325    0.0000 C   0  0  0  0  0  0  0  0  0  0  0  0
   10.3885  -10.7643    0.0000 C   0  0  0  0  0  0  0  0  0  0  0  0
   10.3790   -9.9320    0.0000 C   0  0  0  0  0  0  0  0  0  0  0  0
  2 12  1  0  0  0  0
  3  5  1  0  0  0  0
  4  9  2  0  0  0  0
  5  1  2  0  0  0  0
  6  1  1  0  0  0  0
  7 10  1  0  0  0  0
  8 18  1  0  0  0  0
  9  1  1  0  0  0  0
 10  3  1  0  0  0  0
 11  6  1  0  0  0  0
 12 20  1  0  0  0  0
 13  8  1  0  0  0  0
 14  6  1  0  0  0  0
 15  2  2  0  0  0  0
 16  2  2  0  0  0  0
 17 24  1  0  0  0  0
 18 25  1  0  0  0  0
 19 31  1  0  0  0  0
 20 22  2  0  0  0  0
 21 23  1  0  0  0  0
 22 13  1  0  0  0  0
 23 13  2  0  0  0  0
 24 26  1  0  0  0  0
 25 26  1  0  0  0  0
 26 11  1  0  0  0  0
 27  7  1  0  0  0  0
 28  7  1  0  0  0  0
 29  7  1  0  0  0  0
 30  2  1  0  0  0  0
 31 14  2  0  0  0  0
 32 14  1  0  0  0  0
 33 34  1  0  0  0  0
 34 32  2  0  0  0  0
  3  4  1  0  0  0  0
 17  8  1  0  0  0  0
 33 19  2  0  0  0  0
 12 21  2  0  0  0  0
M  END
> <Molecule Name>
DNDI1713295

> <CDD Number>
CDD-1535864

> <IC50_uM>
4.158 (n=1)

$$$$

SketchEl molfile

 35 38  0  0  0  0  0  0  0  0999 V2000
    7.5468   -9.4350    0.0000 C   0  0  0  0  0  0  0  0  0  0  0  0
    6.6423  -10.4186    0.0000 N   0  0  0  0  0  0  0  0  0  0  0  0
    6.2380   -9.7017    0.0000 N   0  0  0  0  0  0  0  0  0  0  0  0
    7.4509  -10.2519    0.0000 C   0  0  0  0  0  0  0  0  0  0  0  0
    8.2637   -9.0265    0.0000 C   0  0  0  0  0  0  0  0  0  0  0  0
    5.4793  -11.2481    0.0000 C   0  0  0  0  0  0  0  0  0  0  0  0
   10.4312   -6.9924    0.0000 N   0  0  0  0  0  0  0  0  0  0  0  0
   14.0158   -5.8003    0.0000 C   0  0  0  0  0  0  0  0  0  0  0  0
    6.7923   -9.0890    0.0000 C   0  0  0  0  0  0  0  0  0  0  0  0
    6.3005  -11.1689    0.0000 C   0  0  0  0  0  0  0  0  0  0  0  0
    8.2720   -8.2012    0.0000 N   0  0  0  0  0  0  0  0  0  0  0  0
   11.1481   -6.5881    0.0000 C   0  0  0  0  0  0  0  0  0  0  0  0
    8.9765   -9.4475    0.0000 C   0  0  0  0  0  0  0  0  0  0  0  0
   13.3031   -5.3793    0.0000 O   0  0  0  0  0  0  0  0  0  0  0  0
    9.7184   -6.5714    0.0000 C   0  0  0  0  0  0  0  0  0  0  0  0
   10.4187   -7.8177    0.0000 C   0  0  0  0  0  0  0  0  0  0  0  0
    9.6767  -10.6896    0.0000 N   0  0  0  0  0  0  0  0  0  0  0  0
    8.9973   -6.9757    0.0000 C   0  0  0  0  0  0  0  0  0  0  0  0
    9.7017   -8.2220    0.0000 C   0  0  0  0  0  0  0  0  0  0  0  0
    8.9931   -7.7968    0.0000 C   0  0  0  0  0  0  0  0  0  0  0  0
   11.8567   -7.0132    0.0000 C   0  0  0  0  0  0  0  0  0  0  0  0
   11.1564   -5.7669    0.0000 C   0  0  0  0  0  0  0  0  0  0  0  0
    5.0000  -10.5770    0.0000 F   0  0  0  0  0  0  0  0  0  0  0  0
    5.1376  -11.9984    0.0000 F   0  0  0  0  0  0  0  0  0  0  0  0
    5.6169  -10.4353    0.0000 F   0  0  0  0  0  0  0  0  0  0  0  0
   14.7328   -5.3960    0.0000 F   0  0  0  0  0  0  0  0  0  0  0  0
   14.0075   -6.6256    0.0000 F   0  0  0  0  0  0  0  0  0  0  0  0
   13.8116   -5.0000    0.0000 F   0  0  0  0  0  0  0  0  0  0  0  0
   12.5861   -5.7836    0.0000 C   0  0  0  0  0  0  0  0  0  0  0  0
   11.8692   -5.3626    0.0000 C   0  0  0  0  0  0  0  0  0  0  0  0
   12.5736   -6.6089    0.0000 C   0  0  0  0  0  0  0  0  0  0  0  0
    8.9681  -10.2686    0.0000 C   0  0  0  0  0  0  0  0  0  0  0  0
    9.6892   -9.0390    0.0000 C   0  0  0  0  0  0  0  0  0  0  0  0
   10.3978  -10.2811    0.0000 C   0  0  0  0  0  0  0  0  0  0  0  0
   10.4020   -9.4516    0.0000 C   0  0  0  0  0  0  0  0  0  0  0  0
  2  4  1  0  0  0  0
  3  9  2  0  0  0  0
  4  1  2  0  0  0  0
  5  1  1  0  0  0  0
  6 10  1  0  0  0  0
  7 16  1  0  0  0  0
  8 14  1  0  0  0  0
  9  1  1  0  0  0  0
 10  2  1  0  0  0  0
 11  5  1  0  0  0  0
 12  7  1  0  0  0  0
 13  5  1  0  0  0  0
 14 29  1  0  0  0  0
 15 18  1  0  0  0  0
 16 19  1  0  0  0  0
 17 32  1  0  0  0  0
 18 20  1  0  0  0  0
 19 20  1  0  0  0  0
 20 11  1  0  0  0  0
 21 12  2  0  0  0  0
 22 12  1  0  0  0  0
 23  6  1  0  0  0  0
 24  6  1  0  0  0  0
 25  6  1  0  0  0  0
 26  8  1  0  0  0  0
 27  8  1  0  0  0  0
 28  8  1  0  0  0  0
 29 30  1  0  0  0  0
 30 22  2  0  0  0  0
 31 21  1  0  0  0  0
 32 13  2  0  0  0  0
 33 13  1  0  0  0  0
 34 35  1  0  0  0  0
 35 33  2  0  0  0  0
  2  3  1  0  0  0  0
 34 17  2  0  0  0  0
 15  7  1  0  0  0  0
 29 31  2  0  0  0  0
M  END
> <Molecule Name>
DNDI1715608

> <CDD Number>
CDD-1535865

> <IC50_uM>
0.065 (n=1)

$$$$

SketchEl molfile

 34 37  0  0  0  0  0  0  0  0999 V2000
    7.5465   -9.8805    0.0000 C   0  0  0  0  0  0  0  0  0  0  0  0
    6.6463  -10.8641    0.0000 N   0  0  0  0  0  0  0  0  0  0  0  0
    6.2378  -10.1472    0.0000 N   0  0  0  0  0  0  0  0  0  0  0  0
    7.4507  -10.6974    0.0000 C   0  0  0  0  0  0  0  0  0  0  0  0
   13.3023   -5.8252    0.0000 C   0  0  0  0  0  0  0  0  0  0  0  0
    8.2634   -9.4720    0.0000 C   0  0  0  0  0  0  0  0  0  0  0  0
    5.4793  -11.6935    0.0000 C   0  0  0  0  0  0  0  0  0  0  0  0
   10.4307   -7.4381    0.0000 N   0  0  0  0  0  0  0  0  0  0  0  0
    6.7922   -9.5346    0.0000 C   0  0  0  0  0  0  0  0  0  0  0  0
    6.3004  -11.6143    0.0000 C   0  0  0  0  0  0  0  0  0  0  0  0
    8.2717   -8.6468    0.0000 N   0  0  0  0  0  0  0  0  0  0  0  0
   12.5854   -6.2295    0.0000 C   0  0  0  0  0  0  0  0  0  0  0  0
   11.1517   -7.0339    0.0000 C   0  0  0  0  0  0  0  0  0  0  0  0
    8.9761   -9.8930    0.0000 C   0  0  0  0  0  0  0  0  0  0  0  0
    9.7180   -7.0172    0.0000 C   0  0  0  0  0  0  0  0  0  0  0  0
   10.4182   -8.2634    0.0000 C   0  0  0  0  0  0  0  0  0  0  0  0
    9.6763  -11.1350    0.0000 N   0  0  0  0  0  0  0  0  0  0  0  0
   11.8727   -5.8085    0.0000 C   0  0  0  0  0  0  0  0  0  0  0  0
   12.5729   -7.0547    0.0000 C   0  0  0  0  0  0  0  0  0  0  0  0
   11.1559   -6.2128    0.0000 C   0  0  0  0  0  0  0  0  0  0  0  0
   11.8561   -7.4590    0.0000 C   0  0  0  0  0  0  0  0  0  0  0  0
   14.0150   -6.2461    0.0000 F   0  0  0  0  0  0  0  0  0  0  0  0
   13.3148   -5.0000    0.0000 F   0  0  0  0  0  0  0  0  0  0  0  0
   13.5107   -6.6254    0.0000 F   0  0  0  0  0  0  0  0  0  0  0  0
    9.7013   -8.6676    0.0000 C   0  0  0  0  0  0  0  0  0  0  0  0
    8.9969   -7.4215    0.0000 C   0  0  0  0  0  0  0  0  0  0  0  0
    8.9928   -8.2425    0.0000 C   0  0  0  0  0  0  0  0  0  0  0  0
    5.1375  -12.4437    0.0000 F   0  0  0  0  0  0  0  0  0  0  0  0
    5.6168  -10.8808    0.0000 F   0  0  0  0  0  0  0  0  0  0  0  0
    5.0000  -11.0225    0.0000 F   0  0  0  0  0  0  0  0  0  0  0  0
    8.9678  -10.7141    0.0000 C   0  0  0  0  0  0  0  0  0  0  0  0
    9.6888   -9.4845    0.0000 C   0  0  0  0  0  0  0  0  0  0  0  0
   10.3973  -10.7266    0.0000 C   0  0  0  0  0  0  0  0  0  0  0  0
   10.4015   -9.8972    0.0000 C   0  0  0  0  0  0  0  0  0  0  0  0
  2  4  1  0  0  0  0
  3  9  2  0  0  0  0
  4  1  2  0  0  0  0
  5 12  1  0  0  0  0
  6  1  1  0  0  0  0
  7 10  1  0  0  0  0
  8 15  1  0  0  0  0
  9  1  1  0  0  0  0
 10  2  1  0  0  0  0
 11  6  1  0  0  0  0
 12 18  1  0  0  0  0
 13  8  1  0  0  0  0
 14  6  1  0  0  0  0
 15 26  1  0  0  0  0
 16 25  1  0  0  0  0
 17 31  1  0  0  0  0
 18 20  2  0  0  0  0
 19 21  1  0  0  0  0
 20 13  1  0  0  0  0
 21 13  2  0  0  0  0
 22  5  1  0  0  0  0
 23  5  1  0  0  0  0
 24  5  1  0  0  0  0
 25 27  1  0  0  0  0
 26 27  1  0  0  0  0
 27 11  1  0  0  0  0
 28  7  1  0  0  0  0
 29  7  1  0  0  0  0
 30  7  1  0  0  0  0
 31 14  2  0  0  0  0
 32 14  1  0  0  0  0
 33 34  1  0  0  0  0
 34 32  2  0  0  0  0
  2  3  1  0  0  0  0
 33 17  2  0  0  0  0
  8 16  1  0  0  0  0
 12 19  2  0  0  0  0
M  END
> <Molecule Name>
DNDI1715609

> <CDD Number>
CDD-1535866

> <IC50_uM>
0.046 (n=1)

$$$$

SketchEl molfile

 27 29  0  0  0  0  0  0  0  0999 V2000
    9.9925   -6.6503    0.0000 N   0  0  0  0  0  0  0  0  0  0  0  0
    7.8588   -8.7173    0.0000 C   0  0  0  0  0  0  0  0  0  0  0  0
    7.8547   -7.8921    0.0000 N   0  0  0  0  0  0  0  0  0  0  0  0
   10.7051   -6.2377    0.0000 C   0  0  0  0  0  0  0  0  0  0  0  0
    8.5756   -9.1257    0.0000 C   0  0  0  0  0  0  0  0  0  0  0  0
    7.1462   -9.1340    0.0000 C   0  0  0  0  0  0  0  0  0  0  0  0
    9.2757   -6.2419    0.0000 C   0  0  0  0  0  0  0  0  0  0  0  0
    9.9883   -7.4796    0.0000 C   0  0  0  0  0  0  0  0  0  0  0  0
    9.2882  -10.3592    0.0000 N   0  0  0  0  0  0  0  0  0  0  0  0
    9.2799   -7.8880    0.0000 C   0  0  0  0  0  0  0  0  0  0  0  0
    8.5589   -6.6544    0.0000 C   0  0  0  0  0  0  0  0  0  0  0  0
    8.5673   -7.4754    0.0000 C   0  0  0  0  0  0  0  0  0  0  0  0
    6.4294   -8.7215    0.0000 C   0  0  0  0  0  0  0  0  0  0  0  0
    7.1462   -9.9633    0.0000 C   0  0  0  0  0  0  0  0  0  0  0  0
   10.7051   -5.4126    0.0000 C   0  0  0  0  0  0  0  0  0  0  0  0
    5.7168   -9.9633    0.0000 C   0  0  0  0  0  0  0  0  0  0  0  0
    6.4294  -10.3759    0.0000 C   0  0  0  0  0  0  0  0  0  0  0  0
    5.7168   -9.1382    0.0000 C   0  0  0  0  0  0  0  0  0  0  0  0
    8.5756   -9.9508    0.0000 C   0  0  0  0  0  0  0  0  0  0  0  0
    5.0000  -10.3759    0.0000 Cl  0  0  0  0  0  0  0  0  0  0  0  0
   11.4219   -5.0000    0.0000 O   0  0  0  0  0  0  0  0  0  0  0  0
    9.2799   -8.7089    0.0000 C   0  0  0  0  0  0  0  0  0  0  0  0
   11.4219   -6.6503    0.0000 C   0  0  0  0  0  0  0  0  0  0  0  0
   10.0050   -9.9425    0.0000 C   0  0  0  0  0  0  0  0  0  0  0  0
    9.9925   -5.0000    0.0000 C   0  0  0  0  0  0  0  0  0  0  0  0
    9.9967   -9.1132    0.0000 C   0  0  0  0  0  0  0  0  0  0  0  0
   12.1345   -6.2377    0.0000 C   0  0  0  0  0  0  0  0  0  0  0  0
  2  3  1  0  0  0  0
  3 12  1  0  0  0  0
  4  1  1  0  0  0  0
  5  2  1  0  0  0  0
  6  2  1  0  0  0  0
  7  1  1  0  0  0  0
  8  1  1  0  0  0  0
  9 19  1  0  0  0  0
 10  8  1  0  0  0  0
 11  7  1  0  0  0  0
 12 11  1  0  0  0  0
 13  6  2  0  0  0  0
 14  6  1  0  0  0  0
 15  4  1  0  0  0  0
 16 18  2  0  0  0  0
 17 14  2  0  0  0  0
 18 13  1  0  0  0  0
 19  5  2  0  0  0  0
 20 16  1  0  0  0  0
 21 15  1  0  0  0  0
 22  5  1  0  0  0  0
 23  4  1  0  0  0  0
 24 26  1  0  0  0  0
 25 15  1  0  0  0  0
 26 22  2  0  0  0  0
 27 23  1  0  0  0  0
 10 12  1  0  0  0  0
 17 16  1  0  0  0  0
 24  9  2  0  0  0  0
M  END
> <Molecule Name>
DNDI1720696

> <CDD Number>
CDD-1535867

> <IC50_uM>
0.23 (n=1)

$$$$

SketchEl molfile

 30 33  0  0  0  0  0  0  0  0999 V2000
   10.7080   -5.9916    0.0000 C   0  0  0  0  0  0  0  0  0  0  0  0
   11.4580   -6.3291    0.0000 C   0  0  0  0  0  0  0  0  0  0  0  0
   11.5996   -5.0000    0.0000 N   0  0  0  0  0  0  0  0  0  0  0  0
   10.7914   -5.1708    0.0000 N   0  0  0  0  0  0  0  0  0  0  0  0
   12.0121   -5.7166    0.0000 C   0  0  0  0  0  0  0  0  0  0  0  0
    9.9956   -6.4041    0.0000 N   0  0  0  0  0  0  0  0  0  0  0  0
    7.8582   -8.4665    0.0000 C   0  0  0  0  0  0  0  0  0  0  0  0
    7.8540   -7.6415    0.0000 N   0  0  0  0  0  0  0  0  0  0  0  0
   12.8329   -5.7999    0.0000 C   0  0  0  0  0  0  0  0  0  0  0  0
    8.5748   -8.8748    0.0000 C   0  0  0  0  0  0  0  0  0  0  0  0
    7.1457   -8.8831    0.0000 C   0  0  0  0  0  0  0  0  0  0  0  0
    9.9914   -7.2290    0.0000 C   0  0  0  0  0  0  0  0  0  0  0  0
    9.2789   -5.9916    0.0000 C   0  0  0  0  0  0  0  0  0  0  0  0
    9.2873  -10.1080    0.0000 N   0  0  0  0  0  0  0  0  0  0  0  0
    8.5623   -6.4041    0.0000 C   0  0  0  0  0  0  0  0  0  0  0  0
    9.2831   -7.6415    0.0000 C   0  0  0  0  0  0  0  0  0  0  0  0
    8.5665   -7.2249    0.0000 C   0  0  0  0  0  0  0  0  0  0  0  0
    7.1457   -9.7122    0.0000 C   0  0  0  0  0  0  0  0  0  0  0  0
    6.4291   -8.4706    0.0000 C   0  0  0  0  0  0  0  0  0  0  0  0
    5.7166   -9.7122    0.0000 C   0  0  0  0  0  0  0  0  0  0  0  0
    6.4291  -10.1247    0.0000 C   0  0  0  0  0  0  0  0  0  0  0  0
    5.7166   -8.8873    0.0000 C   0  0  0  0  0  0  0  0  0  0  0  0
    8.5748   -9.6997    0.0000 C   0  0  0  0  0  0  0  0  0  0  0  0
    5.0000  -10.1247    0.0000 Cl  0  0  0  0  0  0  0  0  0  0  0  0
   13.1662   -6.5541    0.0000 C   0  0  0  0  0  0  0  0  0  0  0  0
   13.3162   -5.1333    0.0000 C   0  0  0  0  0  0  0  0  0  0  0  0
   12.5371   -6.5707    0.0000 C   0  0  0  0  0  0  0  0  0  0  0  0
    9.2789   -8.4581    0.0000 C   0  0  0  0  0  0  0  0  0  0  0  0
   10.0039   -9.6914    0.0000 C   0  0  0  0  0  0  0  0  0  0  0  0
    9.9956   -8.8623    0.0000 C   0  0  0  0  0  0  0  0  0  0  0  0
  2  1  2  0  0  0  0
  3  4  1  0  0  0  0
  4  1  1  0  0  0  0
  5  2  1  0  0  0  0
  6  1  1  0  0  0  0
  7  8  1  0  0  0  0
  8 17  1  0  0  0  0
  9  5  1  0  0  0  0
 10  7  1  0  0  0  0
 11  7  1  0  0  0  0
 12  6  1  0  0  0  0
 13  6  1  0  0  0  0
 14 23  1  0  0  0  0
 15 13  1  0  0  0  0
 16 12  1  0  0  0  0
 17 16  1  0  0  0  0
 18 11  1  0  0  0  0
 19 11  2  0  0  0  0
 20 22  2  0  0  0  0
 21 18  2  0  0  0  0
 22 19  1  0  0  0  0
 23 10  2  0  0  0  0
 24 20  1  0  0  0  0
 25  9  1  0  0  0  0
 26  9  1  0  0  0  0
 27  9  1  0  0  0  0
 28 10  1  0  0  0  0
 29 30  1  0  0  0  0
 30 28  2  0  0  0  0
  3  5  2  0  0  0  0
 15 17  1  0  0  0  0
 21 20  1  0  0  0  0
 29 14  2  0  0  0  0
M  END
> <Molecule Name>
DNDI1724340

> <CDD Number>
CDD-1535868

> <IC50_uM>
0.019 (n=1)

$$$$

SketchEl molfile

 27 29  0  0  0  0  0  0  0  0999 V2000
    9.9947   -6.6496    0.0000 N   0  0  0  0  0  0  0  0  0  0  0  0
    7.8577   -8.7116    0.0000 C   0  0  0  0  0  0  0  0  0  0  0  0
    7.8535   -7.8868    0.0000 N   0  0  0  0  0  0  0  0  0  0  0  0
   10.7071   -6.2372    0.0000 C   0  0  0  0  0  0  0  0  0  0  0  0
    8.5742   -9.1199    0.0000 C   0  0  0  0  0  0  0  0  0  0  0  0
    7.1454   -9.1282    0.0000 C   0  0  0  0  0  0  0  0  0  0  0  0
    9.2782   -6.2372    0.0000 C   0  0  0  0  0  0  0  0  0  0  0  0
    9.9905   -7.4744    0.0000 C   0  0  0  0  0  0  0  0  0  0  0  0
    9.2865  -10.3529    0.0000 N   0  0  0  0  0  0  0  0  0  0  0  0
    9.2824   -7.8868    0.0000 C   0  0  0  0  0  0  0  0  0  0  0  0
    8.5617   -6.6496    0.0000 C   0  0  0  0  0  0  0  0  0  0  0  0
    8.5659   -7.4703    0.0000 C   0  0  0  0  0  0  0  0  0  0  0  0
    6.4288   -8.7158    0.0000 C   0  0  0  0  0  0  0  0  0  0  0  0
    7.1454   -9.9572    0.0000 C   0  0  0  0  0  0  0  0  0  0  0  0
    5.7165   -9.9572    0.0000 C   0  0  0  0  0  0  0  0  0  0  0  0
   11.4236   -6.6496    0.0000 C   0  0  0  0  0  0  0  0  0  0  0  0
    6.4288  -10.3696    0.0000 C   0  0  0  0  0  0  0  0  0  0  0  0
    5.7165   -9.1282    0.0000 C   0  0  0  0  0  0  0  0  0  0  0  0
    8.5742   -9.9447    0.0000 C   0  0  0  0  0  0  0  0  0  0  0  0
    5.0000  -10.3696    0.0000 Cl  0  0  0  0  0  0  0  0  0  0  0  0
   11.4236   -5.0000    0.0000 O   0  0  0  0  0  0  0  0  0  0  0  0
   10.7071   -5.4124    0.0000 C   0  0  0  0  0  0  0  0  0  0  0  0
    9.2782   -8.7033    0.0000 C   0  0  0  0  0  0  0  0  0  0  0  0
   10.0030   -9.9364    0.0000 C   0  0  0  0  0  0  0  0  0  0  0  0
   12.1359   -6.2372    0.0000 C   0  0  0  0  0  0  0  0  0  0  0  0
   11.4236   -7.4744    0.0000 C   0  0  0  0  0  0  0  0  0  0  0  0
    9.9947   -9.1074    0.0000 C   0  0  0  0  0  0  0  0  0  0  0  0
  2  3  1  0  0  0  0
  3 12  1  0  0  0  0
  4  1  1  0  0  0  0
  5  2  1  0  0  0  0
  6  2  1  0  0  0  0
  7  1  1  0  0  0  0
  8  1  1  0  0  0  0
  9 19  1  0  0  0  0
 10  8  1  0  0  0  0
 11  7  1  0  0  0  0
 12 11  1  0  0  0  0
 13  6  2  0  0  0  0
 14  6  1  0  0  0  0
 15 18  2  0  0  0  0
 16  4  1  0  0  0  0
 17 14  2  0  0  0  0
 18 13  1  0  0  0  0
 19  5  2  0  0  0  0
 20 15  1  0  0  0  0
 21 22  1  0  0  0  0
 22  4  1  0  0  0  0
 23  5  1  0  0  0  0
 24 27  1  0  0  0  0
 25 16  1  0  0  0  0
 26 16  1  0  0  0  0
 27 23  2  0  0  0  0
 10 12  1  0  0  0  0
 17 15  1  0  0  0  0
 24  9  2  0  0  0  0
M  END
> <Molecule Name>
DNDI1724341

> <CDD Number>
CDD-1535869

> <IC50_uM>
0.062 (n=1)

$$$$

SketchEl molfile

 27 29  0  0  0  0  0  0  0  0999 V2000
    6.9421   -8.5258    0.0000 N   0  0  0  0  0  0  0  0  0  0  0  0
    7.7673   -8.5258    0.0000 N   0  0  0  0  0  0  0  0  0  0  0  0
   10.2387   -7.4755    0.0000 N   0  0  0  0  0  0  0  0  0  0  0  0
   10.9514   -7.8881    0.0000 C   0  0  0  0  0  0  0  0  0  0  0  0
    7.3547   -7.2505    0.0000 C   0  0  0  0  0  0  0  0  0  0  0  0
    8.0257   -7.7381    0.0000 C   0  0  0  0  0  0  0  0  0  0  0  0
    6.6921   -7.7381    0.0000 C   0  0  0  0  0  0  0  0  0  0  0  0
   10.2387   -6.6503    0.0000 C   0  0  0  0  0  0  0  0  0  0  0  0
    9.5177   -6.2377    0.0000 C   0  0  0  0  0  0  0  0  0  0  0  0
    6.4587   -9.1926    0.0000 C   0  0  0  0  0  0  0  0  0  0  0  0
   10.9431   -8.7133    0.0000 O   0  0  0  0  0  0  0  0  0  0  0  0
    8.8134   -7.4839    0.0000 O   0  0  0  0  0  0  0  0  0  0  0  0
    8.8051   -6.6587    0.0000 C   0  0  0  0  0  0  0  0  0  0  0  0
    6.7921   -9.9386    0.0000 C   0  0  0  0  0  0  0  0  0  0  0  0
    5.6376   -9.1009    0.0000 C   0  0  0  0  0  0  0  0  0  0  0  0
   11.6641   -7.4755    0.0000 O   0  0  0  0  0  0  0  0  0  0  0  0
    9.5261   -7.8923    0.0000 O   0  0  0  0  0  0  0  0  0  0  0  0
    5.4876  -10.5221    0.0000 C   0  0  0  0  0  0  0  0  0  0  0  0
    5.1500   -9.7636    0.0000 C   0  0  0  0  0  0  0  0  0  0  0  0
    6.3128  -10.6054    0.0000 C   0  0  0  0  0  0  0  0  0  0  0  0
    5.0000  -11.1889    0.0000 Cl  0  0  0  0  0  0  0  0  0  0  0  0
   10.9472   -6.2336    0.0000 C   0  0  0  0  0  0  0  0  0  0  0  0
    9.5136   -5.4209    0.0000 C   0  0  0  0  0  0  0  0  0  0  0  0
   12.3767   -7.8881    0.0000 C   0  0  0  0  0  0  0  0  0  0  0  0
    9.5177   -8.7133    0.0000 C   0  0  0  0  0  0  0  0  0  0  0  0
   10.9431   -5.4084    0.0000 C   0  0  0  0  0  0  0  0  0  0  0  0
   10.2221   -5.0000    0.0000 C   0  0  0  0  0  0  0  0  0  0  0  0
  2  1  1  0  0  0  0
  3  8  1  0  0  0  0
  4  3  1  0  0  0  0
  5  7  2  0  0  0  0
  6  2  2  0  0  0  0
  7  1  1  0  0  0  0
  8  9  2  0  0  0  0
  9 13  1  0  0  0  0
 10  1  1  0  0  0  0
 11  4  2  0  0  0  0
 12  6  1  0  0  0  0
 13 12  1  0  0  0  0
 14 10  1  0  0  0  0
 15 10  2  0  0  0  0
 16  4  1  0  0  0  0
 17  3  1  0  0  0  0
 18 20  1  0  0  0  0
 19 15  1  0  0  0  0
 20 14  2  0  0  0  0
 21 18  1  0  0  0  0
 22  8  1  0  0  0  0
 23  9  1  0  0  0  0
 24 16  1  0  0  0  0
 25 17  1  0  0  0  0
 26 27  1  0  0  0  0
 27 23  2  0  0  0  0
  5  6  1  0  0  0  0
 18 19  2  0  0  0  0
 26 22  2  0  0  0  0
M  END
> <Molecule Name>
DNDI1724943

> <CDD Number>
CDD-54739

> <IC50_uM>
6.46 (n=1)

$$$$

SketchEl molfile

 16 17  0  0  0  0  0  0  0  0999 V2000
    6.4284   -6.6532    0.0000 C   0  0  0  0  0  0  0  0  0  0  0  0
    7.1447   -6.2410    0.0000 C   0  0  0  0  0  0  0  0  0  0  0  0
    6.4326   -7.4736    0.0000 C   0  0  0  0  0  0  0  0  0  0  0  0
    7.8568   -6.6532    0.0000 N   0  0  0  0  0  0  0  0  0  0  0  0
    5.7204   -6.2326    0.0000 S   0  0  0  0  0  0  0  0  0  0  0  0
    7.1447   -5.4164    0.0000 O   0  0  0  0  0  0  0  0  0  0  0  0
    5.7163   -7.8817    0.0000 O   0  0  0  0  0  0  0  0  0  0  0  0
    8.5731   -6.2410    0.0000 C   0  0  0  0  0  0  0  0  0  0  0  0
    7.1488   -7.8859    0.0000 C   0  0  0  0  0  0  0  0  0  0  0  0
    5.0083   -6.6407    0.0000 C   0  0  0  0  0  0  0  0  0  0  0  0
    5.0000   -7.4653    0.0000 C   0  0  0  0  0  0  0  0  0  0  0  0
    8.5731   -5.4122    0.0000 C   0  0  0  0  0  0  0  0  0  0  0  0
    9.2852   -6.6532    0.0000 C   0  0  0  0  0  0  0  0  0  0  0  0
   10.0015   -6.2410    0.0000 C   0  0  0  0  0  0  0  0  0  0  0  0
    9.2852   -5.0000    0.0000 C   0  0  0  0  0  0  0  0  0  0  0  0
   10.0015   -5.4122    0.0000 C   0  0  0  0  0  0  0  0  0  0  0  0
  2  1  1  0  0  0  0
  3  1  2  0  0  0  0
  4  2  1  0  0  0  0
  5  1  1  0  0  0  0
  6  2  2  0  0  0  0
  7  3  1  0  0  0  0
  8  4  1  0  0  0  0
  9  3  1  0  0  0  0
 10  5  1  0  0  0  0
 11  7  1  0  0  0  0
 12  8  2  0  0  0  0
 13  8  1  0  0  0  0
 14 13  2  0  0  0  0
 15 12  1  0  0  0  0
 16 15  2  0  0  0  0
 11 10  1  0  0  0  0
 16 14  1  0  0  0  0
M  END
> <Molecule Name>
DNDI1724944

> <CDD Number>
CDD-54577

> <IC50_uM>
22.41 (n=1)

$$$$

SketchEl molfile

 22 23  0  0  0  0  0  0  0  0999 V2000
    8.9485   -5.8997    0.0000 N   0  0  0  0  0  0  0  0  0  0  0  0
    8.5737   -6.6369    0.0000 C   0  0  0  0  0  0  0  0  0  0  0  0
    7.7615   -6.5119    0.0000 N   0  0  0  0  0  0  0  0  0  0  0  0
    7.6282   -5.6956    0.0000 C   0  0  0  0  0  0  0  0  0  0  0  0
    9.7607   -5.7705    0.0000 C   0  0  0  0  0  0  0  0  0  0  0  0
    7.1784   -7.0950    0.0000 C   0  0  0  0  0  0  0  0  0  0  0  0
    8.3612   -5.3207    0.0000 C   0  0  0  0  0  0  0  0  0  0  0  0
   10.2814   -6.4120    0.0000 N   0  0  0  0  0  0  0  0  0  0  0  0
    6.3828   -6.8826    0.0000 C   0  0  0  0  0  0  0  0  0  0  0  0
    7.3949   -7.8947    0.0000 C   0  0  0  0  0  0  0  0  0  0  0  0
    8.9527   -7.3699    0.0000 O   0  0  0  0  0  0  0  0  0  0  0  0
    6.8951   -5.3207    0.0000 O   0  0  0  0  0  0  0  0  0  0  0  0
   10.0564   -5.0000    0.0000 O   0  0  0  0  0  0  0  0  0  0  0  0
    5.7997   -7.4699    0.0000 C   0  0  0  0  0  0  0  0  0  0  0  0
    6.8160   -8.4779    0.0000 C   0  0  0  0  0  0  0  0  0  0  0  0
    6.0163   -8.2696    0.0000 C   0  0  0  0  0  0  0  0  0  0  0  0
    7.0326   -9.2734    0.0000 Cl  0  0  0  0  0  0  0  0  0  0  0  0
    5.0000   -7.2617    0.0000 Cl  0  0  0  0  0  0  0  0  0  0  0  0
   11.1019   -6.4120    0.0000 C   0  0  0  0  0  0  0  0  0  0  0  0
   11.5184   -7.1242    0.0000 C   0  0  0  0  0  0  0  0  0  0  0  0
   11.5142   -5.6956    0.0000 C   0  0  0  0  0  0  0  0  0  0  0  0
   10.2772   -7.2367    0.0000 H   0  0  0  0  0  0  0  0  0  0  0  0
  2  1  1  0  0  0  0
  3  2  1  0  0  0  0
  4  7  1  0  0  0  0
  5  1  1  0  0  0  0
  6  3  1  0  0  0  0
  7  1  1  0  0  0  0
  8  5  1  0  0  0  0
  9  6  1  0  0  0  0
 10  6  2  0  0  0  0
 11  2  2  0  0  0  0
 12  4  2  0  0  0  0
 13  5  2  0  0  0  0
 14  9  2  0  0  0  0
 15 10  1  0  0  0  0
 16 14  1  0  0  0  0
 17 15  1  0  0  0  0
 18 14  1  0  0  0  0
 19  8  1  0  0  0  0
 20 19  1  0  0  0  0
 21 19  1  0  0  0  0
  3  4  1  0  0  0  0
 15 16  2  0  0  0  0
 22  8  1  0  0  0  0
M  END
> <Molecule Name>
DNDI1729589

> <CDD Number>
CDD-54677

> <IC50_uM>
49.046 (n=1)

$$$$

SketchEl molfile

 16 17  0  0  0  0  0  0  0  0999 V2000
    6.3333   -6.2625    0.0000 C   0  0  0  0  0  0  0  0  0  0  0  0
    7.1208   -6.0083    0.0000 C   0  0  0  0  0  0  0  0  0  0  0  0
    6.0750   -7.0499    0.0000 C   0  0  0  0  0  0  0  0  0  0  0  0
    7.7874   -6.4916    0.0000 N   0  0  0  0  0  0  0  0  0  0  0  0
    5.6625   -5.7791    0.0000 C   0  0  0  0  0  0  0  0  0  0  0  0
    5.2500   -7.0499    0.0000 O   0  0  0  0  0  0  0  0  0  0  0  0
    5.0000   -6.2625    0.0000 C   0  0  0  0  0  0  0  0  0  0  0  0
    7.1166   -5.1833    0.0000 O   0  0  0  0  0  0  0  0  0  0  0  0
    8.5416   -6.1583    0.0000 C   0  0  0  0  0  0  0  0  0  0  0  0
    6.5625   -7.7166    0.0000 C   0  0  0  0  0  0  0  0  0  0  0  0
    9.2082   -6.6416    0.0000 C   0  0  0  0  0  0  0  0  0  0  0  0
    8.6208   -5.3417    0.0000 C   0  0  0  0  0  0  0  0  0  0  0  0
    9.3707   -5.0000    0.0000 C   0  0  0  0  0  0  0  0  0  0  0  0
    9.9582   -6.3083    0.0000 C   0  0  0  0  0  0  0  0  0  0  0  0
   10.0457   -5.4875    0.0000 C   0  0  0  0  0  0  0  0  0  0  0  0
    7.7791   -7.3166    0.0000 H   0  0  0  0  0  0  0  0  0  0  0  0
  2  1  1  0  0  0  0
  3  1  2  0  0  0  0
  4  2  1  0  0  0  0
  5  1  1  0  0  0  0
  6  3  1  0  0  0  0
  7  5  2  0  0  0  0
  8  2  2  0  0  0  0
  9  4  1  0  0  0  0
 10  3  1  0  0  0  0
 11  9  2  0  0  0  0
 12  9  1  0  0  0  0
 13 12  2  0  0  0  0
 14 11  1  0  0  0  0
 15 13  1  0  0  0  0
  6  7  1  0  0  0  0
 15 14  2  0  0  0  0
 16  4  1  0  0  0  0
M  END
> <Molecule Name>
DNDI1729590

> <CDD Number>
CDD-1535142

> <IC50_uM>
74.987 (n=1)

$$$$

SketchEl molfile

 21 22  0  0  0  0  0  0  0  0999 V2000
    6.8336   -6.2710    0.0000 N   0  0  0  0  0  0  0  0  0  0  0  0
    6.3502   -6.9377    0.0000 S   0  0  0  0  0  0  0  0  0  0  0  0
    6.5835   -5.4834    0.0000 C   0  0  0  0  0  0  0  0  0  0  0  0
    7.6587   -6.2710    0.0000 C   0  0  0  0  0  0  0  0  0  0  0  0
    7.2461   -5.0000    0.0000 N   0  0  0  0  0  0  0  0  0  0  0  0
    7.9171   -5.4834    0.0000 C   0  0  0  0  0  0  0  0  0  0  0  0
    5.8001   -5.2292    0.0000 C   0  0  0  0  0  0  0  0  0  0  0  0
    5.8209   -7.5670    0.0000 N   0  0  0  0  0  0  0  0  0  0  0  0
    5.0000   -5.0125    0.0000 N   0  0  0  0  0  0  0  0  0  0  0  0
    8.1462   -6.9377    0.0000 C   0  0  0  0  0  0  0  0  0  0  0  0
    5.5501   -6.7169    0.0000 O   0  0  0  0  0  0  0  0  0  0  0  0
    7.0628   -7.3461    0.0000 O   0  0  0  0  0  0  0  0  0  0  0  0
    8.7047   -5.2292    0.0000 Cl  0  0  0  0  0  0  0  0  0  0  0  0
    8.9589   -6.8502    0.0000 C   0  0  0  0  0  0  0  0  0  0  0  0
    7.8045   -7.6878    0.0000 C   0  0  0  0  0  0  0  0  0  0  0  0
    8.2879   -8.3546    0.0000 C   0  0  0  0  0  0  0  0  0  0  0  0
    9.4464   -7.5128    0.0000 C   0  0  0  0  0  0  0  0  0  0  0  0
    9.1089   -8.2712    0.0000 C   0  0  0  0  0  0  0  0  0  0  0  0
    6.1043   -8.3421    0.0000 C   0  0  0  0  0  0  0  0  0  0  0  0
    5.0083   -7.4253    0.0000 C   0  0  0  0  0  0  0  0  0  0  0  0
    9.5964   -8.9380    0.0000 C   0  0  0  0  0  0  0  0  0  0  0  0
  2  1  1  0  0  0  0
  3  1  1  0  0  0  0
  4  1  1  0  0  0  0
  5  3  2  0  0  0  0
  6  4  2  0  0  0  0
  7  3  1  0  0  0  0
  8  2  1  0  0  0  0
  9  7  3  0  0  0  0
 10  4  1  0  0  0  0
 11  2  2  0  0  0  0
 12  2  2  0  0  0  0
 13  6  1  0  0  0  0
 14 10  1  0  0  0  0
 15 10  2  0  0  0  0
 16 15  1  0  0  0  0
 17 14  2  0  0  0  0
 18 16  2  0  0  0  0
 19  8  1  0  0  0  0
 20  8  1  0  0  0  0
 21 18  1  0  0  0  0
  5  6  1  0  0  0  0
 17 18  1  0  0  0  0
M  END
> <Molecule Name>
DNDI1729591

> <CDD Number>
CDD-54596

> <IC50_uM>
47.164 (n=1)

$$$$

SketchEl molfile

 19 20  0  0  0  0  0  0  0  0999 V2000
    5.8818   -6.2251    0.0000 S   0  0  0  0  0  0  0  0  0  0  0  0
    6.5943   -6.6418    0.0000 C   0  0  0  0  0  0  0  0  0  0  0  0
    7.3111   -6.2293    0.0000 C   0  0  0  0  0  0  0  0  0  0  0  0
    6.5943   -7.4669    0.0000 C   0  0  0  0  0  0  0  0  0  0  0  0
    8.0237   -6.6460    0.0000 N   0  0  0  0  0  0  0  0  0  0  0  0
    5.1692   -6.6418    0.0000 C   0  0  0  0  0  0  0  0  0  0  0  0
    6.5943   -5.8042    0.0000 O   0  0  0  0  0  0  0  0  0  0  0  0
    5.1650   -5.8126    0.0000 O   0  0  0  0  0  0  0  0  0  0  0  0
    7.3153   -5.4042    0.0000 O   0  0  0  0  0  0  0  0  0  0  0  0
    5.8818   -7.8753    0.0000 O   0  0  0  0  0  0  0  0  0  0  0  0
    5.1692   -7.4669    0.0000 C   0  0  0  0  0  0  0  0  0  0  0  0
    8.7405   -6.2335    0.0000 C   0  0  0  0  0  0  0  0  0  0  0  0
    7.3111   -7.8795    0.0000 C   0  0  0  0  0  0  0  0  0  0  0  0
    8.7363   -5.4125    0.0000 C   0  0  0  0  0  0  0  0  0  0  0  0
    9.4489   -6.6502    0.0000 C   0  0  0  0  0  0  0  0  0  0  0  0
   10.1656   -6.2418    0.0000 C   0  0  0  0  0  0  0  0  0  0  0  0
    9.4489   -5.0000    0.0000 C   0  0  0  0  0  0  0  0  0  0  0  0
   10.1698   -5.4167    0.0000 C   0  0  0  0  0  0  0  0  0  0  0  0
    8.0237   -7.4669    0.0000 H   0  0  0  0  0  0  0  0  0  0  0  0
  2  1  1  0  0  0  0
  3  2  1  0  0  0  0
  4  2  2  0  0  0  0
  5  3  1  0  0  0  0
  6  1  1  0  0  0  0
  7  1  2  0  0  0  0
  8  1  2  0  0  0  0
  9  3  2  0  0  0  0
 10 11  1  0  0  0  0
 11  6  1  0  0  0  0
 12  5  1  0  0  0  0
 13  4  1  0  0  0  0
 14 12  1  0  0  0  0
 15 12  2  0  0  0  0
 16 15  1  0  0  0  0
 17 14  2  0  0  0  0
 18 17  1  0  0  0  0
  4 10  1  0  0  0  0
 18 16  2  0  0  0  0
 19  5  1  0  0  0  0
M  END
> <Molecule Name>
DNDI1729592

> <CDD Number>
CDD-196058

> <IC50_uM>
65.123 (n=1)

$$$$
