
Generated by Molecular Materials Informatics

 19 21  0  0  0  0  0  0  0  0999 V2000
   -0.3444   -0.7029    0.0000 S   0  0  0  0  0  0  0  0  0  0  0  0
   -0.2170    6.5103    0.0000 F   0  0  0  0  0  0  0  0  0  0  0  0
   -3.4760   -0.7884    0.0000 O   0  0  0  0  0  0  0  0  0  0  0  0
    3.6802   -0.2395    0.0000 N   0  0  0  0  0  0  0  0  0  0  0  0
   -3.4760    1.8095    0.0000 N   0  0  0  0  0  0  0  0  0  0  0  0
    1.0821    1.2604    0.0000 C   0  0  0  0  0  0  0  0  0  0  0  0
    1.0821   -0.2395    0.0000 C   0  0  0  0  0  0  0  0  0  0  0  0
    2.3811    2.0104    0.0000 C   0  0  0  0  0  0  0  0  0  0  0  0
   -1.2260    0.5105    0.0000 C   0  0  0  0  0  0  0  0  0  0  0  0
   -0.3444    1.7241    0.0000 C   0  0  0  0  0  0  0  0  0  0  0  0
    2.3811    3.5104    0.0000 C   0  0  0  0  0  0  0  0  0  0  0  0
    2.3811   -0.9895    0.0000 C   0  0  0  0  0  0  0  0  0  0  0  0
    3.6802    1.2604    0.0000 C   0  0  0  0  0  0  0  0  0  0  0  0
   -2.7260    0.5105    0.0000 C   0  0  0  0  0  0  0  0  0  0  0  0
    1.0821    4.2604    0.0000 C   0  0  0  0  0  0  0  0  0  0  0  0
    3.6802    4.2604    0.0000 C   0  0  0  0  0  0  0  0  0  0  0  0
    1.0821    5.7603    0.0000 C   0  0  0  0  0  0  0  0  0  0  0  0
    3.6802    5.7603    0.0000 C   0  0  0  0  0  0  0  0  0  0  0  0
    2.3811    6.5103    0.0000 C   0  0  0  0  0  0  0  0  0  0  0  0
  1  7  1  0  0  0  0
  1  9  1  0  0  0  0
  2 17  1  0  0  0  0
  3 14  2  0  0  0  0
  4 12  1  0  0  0  0
  4 13  2  0  0  0  0
  5 14  1  0  0  0  0
  6  7  1  0  0  0  0
  6  8  2  0  0  0  0
  6 10  1  0  0  0  0
  7 12  2  0  0  0  0
  8 11  1  0  0  0  0
  8 13  1  0  0  0  0
  9 10  2  0  0  0  0
  9 14  1  0  0  0  0
 11 15  1  0  0  0  0
 11 16  2  0  0  0  0
 15 17  2  0  0  0  0
 16 18  1  0  0  0  0
 17 19  1  0  0  0  0
 18 19  2  0  0  0  0
M  END
> <Name>


> <Value>
6.499996931948306

> <Error>


> <Units>


> <Relation>
=

> <SourceURI>
mol:CHEMBL1971017

$$$$

Generated by Molecular Materials Informatics

 46 52  0  0  0  0  0  0  0  0999 V2000
   -0.8871    1.6079    0.0000 O   0  0  0  0  0  0  0  0  0  0  0  0
    0.6129   -3.5883    0.0000 O   0  0  0  0  0  0  0  0  0  0  0  0
  -16.0333    7.4234    0.0000 O   0  0  0  0  0  0  0  0  0  0  0  0
   -7.6955   -0.2403    0.0000 N   0  0  0  0  0  0  0  0  0  0  0  0
   -6.2689    0.2234    0.0000 N   0  0  0  0  0  0  0  0  0  0  0  0
   -8.8102   -2.7439    0.0000 N   0  0  0  0  0  0  0  0  0  0  0  0
   -7.0716   -4.6746    0.0000 N   0  0  0  0  0  0  0  0  0  0  0  0
    3.7445   -3.5028    0.0000 N   0  0  0  0  0  0  0  0  0  0  0  0
    0.6129   -0.9903    0.0000 N   0  0  0  0  0  0  0  0  0  0  0  0
   -4.5304   -4.1345    0.0000 N   0  0  0  0  0  0  0  0  0  0  0  0
  -12.5495    3.2865    0.0000 N   0  0  0  0  0  0  0  0  0  0  0  0
  -14.9765    5.0499    0.0000 N   0  0  0  0  0  0  0  0  0  0  0  0
   -6.2689   -2.2037    0.0000 C   0  0  0  0  0  0  0  0  0  0  0  0
   -5.3871   -0.9903    0.0000 C   0  0  0  0  0  0  0  0  0  0  0  0
   -7.6955   -1.7403    0.0000 C   0  0  0  0  0  0  0  0  0  0  0  0
   -3.8871   -0.9903    0.0000 C   0  0  0  0  0  0  0  0  0  0  0  0
   -5.9569   -3.6710    0.0000 C   0  0  0  0  0  0  0  0  0  0  0  0
   -8.9089    0.6415    0.0000 C   0  0  0  0  0  0  0  0  0  0  0  0
   -3.1371    0.3088    0.0000 C   0  0  0  0  0  0  0  0  0  0  0  0
   -3.1371   -2.2892    0.0000 C   0  0  0  0  0  0  0  0  0  0  0  0
   -1.6371    0.3088    0.0000 C   0  0  0  0  0  0  0  0  0  0  0  0
   -0.8871   -0.9903    0.0000 C   0  0  0  0  0  0  0  0  0  0  0  0
   -8.4982   -4.2112    0.0000 C   0  0  0  0  0  0  0  0  0  0  0  0
    2.8629   -2.2892    0.0000 C   0  0  0  0  0  0  0  0  0  0  0  0
  -10.2793    0.0314    0.0000 C   0  0  0  0  0  0  0  0  0  0  0  0
   -8.7522    2.1332    0.0000 C   0  0  0  0  0  0  0  0  0  0  0  0
    5.1711   -3.0392    0.0000 C   0  0  0  0  0  0  0  0  0  0  0  0
   -1.6371   -2.2892    0.0000 C   0  0  0  0  0  0  0  0  0  0  0  0
    5.1711   -1.5392    0.0000 C   0  0  0  0  0  0  0  0  0  0  0  0
    1.3629   -2.2892    0.0000 C   0  0  0  0  0  0  0  0  0  0  0  0
  -11.3360    2.4048    0.0000 C   0  0  0  0  0  0  0  0  0  0  0  0
    3.7445   -1.0757    0.0000 C   0  0  0  0  0  0  0  0  0  0  0  0
  -11.4927    0.9130    0.0000 C   0  0  0  0  0  0  0  0  0  0  0  0
   -9.9656    3.0150    0.0000 C   0  0  0  0  0  0  0  0  0  0  0  0
    6.4702   -3.7892    0.0000 C   0  0  0  0  0  0  0  0  0  0  0  0
    6.4702   -0.7892    0.0000 C   0  0  0  0  0  0  0  0  0  0  0  0
    3.2811   -4.9294    0.0000 C   0  0  0  0  0  0  0  0  0  0  0  0
    7.7693   -3.0392    0.0000 C   0  0  0  0  0  0  0  0  0  0  0  0
    7.7693   -1.5392    0.0000 C   0  0  0  0  0  0  0  0  0  0  0  0
  -13.9198    2.6765    0.0000 C   0  0  0  0  0  0  0  0  0  0  0  0
  -12.3927    4.7783    0.0000 C   0  0  0  0  0  0  0  0  0  0  0  0
  -15.1333    3.5581    0.0000 C   0  0  0  0  0  0  0  0  0  0  0  0
  -13.6062    5.6599    0.0000 C   0  0  0  0  0  0  0  0  0  0  0  0
    0.6129    1.6079    0.0000 C   0  0  0  0  0  0  0  0  0  0  0  0
  -16.1900    5.9315    0.0000 C   0  0  0  0  0  0  0  0  0  0  0  0
  -17.5604    5.3214    0.0000 C   0  0  0  0  0  0  0  0  0  0  0  0
  1 21  1  0  0  0  0
  1 44  1  0  0  0  0
  2 30  2  0  0  0  0
  3 45  2  0  0  0  0
  4  5  1  0  0  0  0
  4 15  1  0  0  0  0
  4 18  1  0  0  0  0
  5 14  2  0  0  0  0
  6 15  2  0  0  0  0
  6 23  1  0  0  0  0
  7 17  1  0  0  0  0
  7 23  2  0  0  0  0
  8 24  1  0  0  0  0
  8 27  1  0  0  0  0
  8 37  1  0  0  0  0
  9 22  1  0  0  0  0
  9 30  1  0  0  0  0
 10 17  1  0  0  0  0
 11 31  1  0  0  0  0
 11 40  1  0  0  0  0
 11 41  1  0  0  0  0
 12 42  1  0  0  0  0
 12 43  1  0  0  0  0
 12 45  1  0  0  0  0
 13 14  1  0  0  0  0
 13 15  1  0  0  0  0
 13 17  2  0  0  0  0
 14 16  1  0  0  0  0
 16 19  1  0  0  0  0
 16 20  2  0  0  0  0
 18 25  1  0  0  0  0
 18 26  1  0  0  0  0
 19 21  2  0  0  0  0
 20 28  1  0  0  0  0
 21 22  1  0  0  0  0
 22 28  2  0  0  0  0
 24 30  1  0  0  0  0
 24 32  2  0  0  0  0
 25 33  1  0  0  0  0
 26 34  1  0  0  0  0
 27 29  1  0  0  0  0
 27 35  2  0  0  0  0
 29 32  1  0  0  0  0
 29 36  2  0  0  0  0
 31 33  1  0  0  0  0
 31 34  1  0  0  0  0
 35 38  1  0  0  0  0
 36 39  1  0  0  0  0
 38 39  2  0  0  0  0
 40 42  1  0  0  0  0
 41 43  1  0  0  0  0
 45 46  1  0  0  0  0
M  END
> <Value>
5.899998417198648

> <Relation>
<

> <SourceURI>
mol:CHEMBL1970879

$$$$

Generated by Molecular Materials Informatics

 25 27  0  0  0  0  0  0  0  0999 V2000
    0.6821   -0.5625    0.0000 O   0  0  0  0  0  0  0  0  0  0  0  0
    5.8781    5.4373    0.0000 O   0  0  0  0  0  0  0  0  0  0  0  0
    3.2802   -5.0624    0.0000 N   0  0  0  0  0  0  0  0  0  0  0  0
    0.6821   -5.0624    0.0000 N   0  0  0  0  0  0  0  0  0  0  0  0
    3.2802   -0.5625    0.0000 N   0  0  0  0  0  0  0  0  0  0  0  0
    1.9811  -10.3122    0.0000 N   0  0  0  0  0  0  0  0  0  0  0  0
    1.9811   -2.8125    0.0000 C   0  0  0  0  0  0  0  0  0  0  0  0
    1.9811   -5.8124    0.0000 C   0  0  0  0  0  0  0  0  0  0  0  0
    1.9811   -1.3125    0.0000 C   0  0  0  0  0  0  0  0  0  0  0  0
    1.9811   -7.3123    0.0000 C   0  0  0  0  0  0  0  0  0  0  0  0
    3.2802    0.9374    0.0000 C   0  0  0  0  0  0  0  0  0  0  0  0
    4.5790    1.6874    0.0000 C   0  0  0  0  0  0  0  0  0  0  0  0
    3.2802   -3.5625    0.0000 C   0  0  0  0  0  0  0  0  0  0  0  0
    0.6821   -3.5625    0.0000 C   0  0  0  0  0  0  0  0  0  0  0  0
    4.5790    3.1873    0.0000 C   0  0  0  0  0  0  0  0  0  0  0  0
    0.6821   -8.0623    0.0000 C   0  0  0  0  0  0  0  0  0  0  0  0
    3.2802   -8.0623    0.0000 C   0  0  0  0  0  0  0  0  0  0  0  0
    5.8781    3.9373    0.0000 C   0  0  0  0  0  0  0  0  0  0  0  0
    5.8781    0.9374    0.0000 C   0  0  0  0  0  0  0  0  0  0  0  0
    7.1771    3.1873    0.0000 C   0  0  0  0  0  0  0  0  0  0  0  0
    7.1771    1.6874    0.0000 C   0  0  0  0  0  0  0  0  0  0  0  0
    0.6821   -9.5623    0.0000 C   0  0  0  0  0  0  0  0  0  0  0  0
    3.2802   -9.5623    0.0000 C   0  0  0  0  0  0  0  0  0  0  0  0
    1.9811    1.6874    0.0000 C   0  0  0  0  0  0  0  0  0  0  0  0
    4.5790    6.1872    0.0000 C   0  0  0  0  0  0  0  0  0  0  0  0
  1  9  2  0  0  0  0
  2 18  1  0  0  0  0
  2 25  1  0  0  0  0
  3  8  1  0  0  0  0
  3 13  2  0  0  0  0
  4  8  2  0  0  0  0
  4 14  1  0  0  0  0
  5  9  1  0  0  0  0
  5 11  1  0  0  0  0
  6 22  2  0  0  0  0
  6 23  1  0  0  0  0
  7  9  1  0  0  0  0
  7 13  1  0  0  0  0
  7 14  2  0  0  0  0
  8 10  1  0  0  0  0
 10 16  2  0  0  0  0
 10 17  1  0  0  0  0
 11 12  1  0  0  0  0
 11 24  1  0  0  0  0
 12 15  2  0  0  0  0
 12 19  1  0  0  0  0
 15 18  1  0  0  0  0
 16 22  1  0  0  0  0
 17 23  2  0  0  0  0
 18 20  2  0  0  0  0
 19 21  2  0  0  0  0
 20 21  1  0  0  0  0
M  END
> <Value>
5.300000202445418

> <Relation>
<

> <SourceURI>
mol:CHEMBL2003514

$$$$

Generated by Molecular Materials Informatics

 27 30  0  0  0  0  0  0  0  0999 V2000
   -1.1514   -3.4149    0.0000 O   0  0  0  0  0  0  0  0  0  0  0  0
   -0.5347    5.5213    0.0000 O   0  0  0  0  0  0  0  0  0  0  0  0
    1.5742   -3.7014    0.0000 N   0  0  0  0  0  0  0  0  0  0  0  0
    2.8732   -1.4514    0.0000 N   0  0  0  0  0  0  0  0  0  0  0  0
    1.5742    0.7986    0.0000 N   0  0  0  0  0  0  0  0  0  0  0  0
   -3.0056    4.7184    0.0000 N   0  0  0  0  0  0  0  0  0  0  0  0
   -2.4654    7.2597    0.0000 N   0  0  0  0  0  0  0  0  0  0  0  0
    0.2752   -1.4514    0.0000 C   0  0  0  0  0  0  0  0  0  0  0  0
   -1.1514   -0.9879    0.0000 C   0  0  0  0  0  0  0  0  0  0  0  0
    0.2752   -2.9514    0.0000 C   0  0  0  0  0  0  0  0  0  0  0  0
   -1.6150    0.4388    0.0000 C   0  0  0  0  0  0  0  0  0  0  0  0
    1.5742   -0.7014    0.0000 C   0  0  0  0  0  0  0  0  0  0  0  0
   -2.0330   -2.2014    0.0000 C   0  0  0  0  0  0  0  0  0  0  0  0
   -3.0821    0.7506    0.0000 C   0  0  0  0  0  0  0  0  0  0  0  0
   -0.6112    1.5535    0.0000 C   0  0  0  0  0  0  0  0  0  0  0  0
    2.8732   -2.9514    0.0000 C   0  0  0  0  0  0  0  0  0  0  0  0
   -2.5419    3.2919    0.0000 C   0  0  0  0  0  0  0  0  0  0  0  0
   -3.5458    2.1772    0.0000 C   0  0  0  0  0  0  0  0  0  0  0  0
   -1.0748    2.9801    0.0000 C   0  0  0  0  0  0  0  0  0  0  0  0
   -2.0018    5.8332    0.0000 C   0  0  0  0  0  0  0  0  0  0  0  0
   -1.4618    8.3744    0.0000 C   0  0  0  0  0  0  0  0  0  0  0  0
   -1.9252    9.8012    0.0000 C   0  0  0  0  0  0  0  0  0  0  0  0
    0.0055    8.0626    0.0000 C   0  0  0  0  0  0  0  0  0  0  0  0
   -0.9216   10.9159    0.0000 C   0  0  0  0  0  0  0  0  0  0  0  0
    1.0093    9.1774    0.0000 C   0  0  0  0  0  0  0  0  0  0  0  0
    0.5457   10.6039    0.0000 C   0  0  0  0  0  0  0  0  0  0  0  0
   -3.3925   10.1130    0.0000 C   0  0  0  0  0  0  0  0  0  0  0  0
  1 10  1  0  0  0  0
  1 13  1  0  0  0  0
  2 20  2  0  0  0  0
  3 10  2  0  0  0  0
  3 16  1  0  0  0  0
  4 12  1  0  0  0  0
  4 16  2  0  0  0  0
  5 12  1  0  0  0  0
  6 17  1  0  0  0  0
  6 20  1  0  0  0  0
  7 20  1  0  0  0  0
  7 21  1  0  0  0  0
  8  9  1  0  0  0  0
  8 10  1  0  0  0  0
  8 12  2  0  0  0  0
  9 11  1  0  0  0  0
  9 13  2  0  0  0  0
 11 14  2  0  0  0  0
 11 15  1  0  0  0  0
 14 18  1  0  0  0  0
 15 19  2  0  0  0  0
 17 18  2  0  0  0  0
 17 19  1  0  0  0  0
 21 22  1  0  0  0  0
 21 23  2  0  0  0  0
 22 24  2  0  0  0  0
 22 27  1  0  0  0  0
 23 25  1  0  0  0  0
 24 26  1  0  0  0  0
 25 26  2  0  0  0  0
M  END
> <Value>
5.899998417198648

> <Relation>
<

> <SourceURI>
mol:CHEMBL1984586

$$$$

Generated by Molecular Materials Informatics

 22 24  0  0  0  0  0  0  0  0999 V2000
   -2.6953   -1.7625    0.0000 Cl  0  0  0  0  0  0  0  0  0  0  0  0
    2.5009    2.7375    0.0000 O   0  0  0  0  0  0  0  0  0  0  0  0
    2.5009   -3.2625    0.0000 O   0  0  0  0  0  0  0  0  0  0  0  0
    2.5009    1.2375    0.0000 N   0  0  0  0  0  0  0  0  0  0  0  0
    5.2265    0.9510    0.0000 N   0  0  0  0  0  0  0  0  0  0  0  0
    6.1082   -0.2625    0.0000 N   0  0  0  0  0  0  0  0  0  0  0  0
    3.8000    0.4875    0.0000 C   0  0  0  0  0  0  0  0  0  0  0  0
    3.8000   -1.0125    0.0000 C   0  0  0  0  0  0  0  0  0  0  0  0
    1.2018    0.4875    0.0000 C   0  0  0  0  0  0  0  0  0  0  0  0
    1.2018   -1.0125    0.0000 C   0  0  0  0  0  0  0  0  0  0  0  0
    2.5009   -1.7625    0.0000 C   0  0  0  0  0  0  0  0  0  0  0  0
    5.2265   -1.4760    0.0000 C   0  0  0  0  0  0  0  0  0  0  0  0
   -0.0971   -1.7625    0.0000 C   0  0  0  0  0  0  0  0  0  0  0  0
   -0.0971    1.2375    0.0000 C   0  0  0  0  0  0  0  0  0  0  0  0
   -1.3962   -1.0125    0.0000 C   0  0  0  0  0  0  0  0  0  0  0  0
   -1.3962    0.4875    0.0000 C   0  0  0  0  0  0  0  0  0  0  0  0
    5.6900    2.3777    0.0000 C   0  0  0  0  0  0  0  0  0  0  0  0
    5.6900   -2.9027    0.0000 C   0  0  0  0  0  0  0  0  0  0  0  0
    1.2018    3.4875    0.0000 C   0  0  0  0  0  0  0  0  0  0  0  0
    1.2018    4.9875    0.0000 C   0  0  0  0  0  0  0  0  0  0  0  0
   -0.0971    5.7375    0.0000 C   0  0  0  0  0  0  0  0  0  0  0  0
    2.5009    5.7375    0.0000 C   0  0  0  0  0  0  0  0  0  0  0  0
  1 15  1  0  0  0  0
  2  4  1  0  0  0  0
  2 19  1  0  0  0  0
  3 11  2  0  0  0  0
  4  7  1  0  0  0  0
  4  9  1  0  0  0  0
  5  6  1  0  0  0  0
  5  7  1  0  0  0  0
  5 17  1  0  0  0  0
  6 12  2  0  0  0  0
  7  8  2  0  0  0  0
  8 11  1  0  0  0  0
  8 12  1  0  0  0  0
  9 10  1  0  0  0  0
  9 14  2  0  0  0  0
 10 11  1  0  0  0  0
 10 13  2  0  0  0  0
 12 18  1  0  0  0  0
 13 15  1  0  0  0  0
 14 16  1  0  0  0  0
 15 16  2  0  0  0  0
 19 20  1  0  0  0  0
 20 21  1  0  0  0  0
 20 22  1  0  0  0  0
M  END
> <Value>
5.499999678657065

> <Relation>
<

> <SourceURI>
mol:CHEMBL1977814

$$$$

Generated by Molecular Materials Informatics

 30 33  0  0  0  0  0  0  0  0999 V2000
    8.2499   -1.1986    0.0000 F   0  0  0  0  0  0  0  0  0  0  0  0
   -1.4850   -2.4122    0.0000 O   0  0  0  0  0  0  0  0  0  0  0  0
   -0.0583   -0.4486    0.0000 N   0  0  0  0  0  0  0  0  0  0  0  0
    1.3683   -2.4122    0.0000 N   0  0  0  0  0  0  0  0  0  0  0  0
    3.2990    1.7532    0.0000 N   0  0  0  0  0  0  0  0  0  0  0  0
    2.7588    4.2947    0.0000 N   0  0  0  0  0  0  0  0  0  0  0  0
    5.2297    3.4918    0.0000 N   0  0  0  0  0  0  0  0  0  0  0  0
   10.1716    1.8861    0.0000 N   0  0  0  0  0  0  0  0  0  0  0  0
    1.3683    0.0149    0.0000 C   0  0  0  0  0  0  0  0  0  0  0  0
    2.2499   -1.1986    0.0000 C   0  0  0  0  0  0  0  0  0  0  0  0
   -0.0583   -1.9486    0.0000 C   0  0  0  0  0  0  0  0  0  0  0  0
    1.8317    1.4414    0.0000 C   0  0  0  0  0  0  0  0  0  0  0  0
    3.7499   -1.1986    0.0000 C   0  0  0  0  0  0  0  0  0  0  0  0
   -1.4850    0.0149    0.0000 C   0  0  0  0  0  0  0  0  0  0  0  0
   -2.3666   -1.1986    0.0000 C   0  0  0  0  0  0  0  0  0  0  0  0
    0.8281    2.5561    0.0000 C   0  0  0  0  0  0  0  0  0  0  0  0
    3.7625    3.1800    0.0000 C   0  0  0  0  0  0  0  0  0  0  0  0
    4.4999    0.1003    0.0000 C   0  0  0  0  0  0  0  0  0  0  0  0
    4.4999   -2.4977    0.0000 C   0  0  0  0  0  0  0  0  0  0  0  0
    1.2916    3.9827    0.0000 C   0  0  0  0  0  0  0  0  0  0  0  0
    5.9999    0.1003    0.0000 C   0  0  0  0  0  0  0  0  0  0  0  0
    5.9999   -2.4977    0.0000 C   0  0  0  0  0  0  0  0  0  0  0  0
    6.7499   -1.1986    0.0000 C   0  0  0  0  0  0  0  0  0  0  0  0
    7.7006    2.6889    0.0000 C   0  0  0  0  0  0  0  0  0  0  0  0
    6.2334    2.3770    0.0000 C   0  0  0  0  0  0  0  0  0  0  0  0
    9.1679    3.0009    0.0000 C   0  0  0  0  0  0  0  0  0  0  0  0
    8.0125    1.2218    0.0000 C   0  0  0  0  0  0  0  0  0  0  0  0
    7.3888    4.1561    0.0000 C   0  0  0  0  0  0  0  0  0  0  0  0
   11.6388    2.1980    0.0000 C   0  0  0  0  0  0  0  0  0  0  0  0
    9.7081    0.4594    0.0000 C   0  0  0  0  0  0  0  0  0  0  0  0
  1 23  1  0  0  0  0
  2 11  1  0  0  0  0
  2 15  1  0  0  0  0
  3  9  1  0  0  0  0
  3 11  1  0  0  0  0
  3 14  1  0  0  0  0
  4 10  1  0  0  0  0
  4 11  2  0  0  0  0
  5 12  2  0  0  0  0
  5 17  1  0  0  0  0
  6 17  2  0  0  0  0
  6 20  1  0  0  0  0
  7 17  1  0  0  0  0
  7 25  1  0  0  0  0
  8 26  1  0  0  0  0
  8 29  1  0  0  0  0
  8 30  1  0  0  0  0
  9 10  2  0  0  0  0
  9 12  1  0  0  0  0
 10 13  1  0  0  0  0
 12 16  1  0  0  0  0
 13 18  2  0  0  0  0
 13 19  1  0  0  0  0
 14 15  2  0  0  0  0
 16 20  2  0  0  0  0
 18 21  1  0  0  0  0
 19 22  2  0  0  0  0
 21 23  2  0  0  0  0
 22 23  1  0  0  0  0
 24 25  1  0  0  0  0
 24 26  1  0  0  0  0
 24 27  1  0  0  0  0
 24 28  1  0  0  0  0
M  END
> <Value>
5.899998417198648

> <Relation>
<

> <SourceURI>
mol:CHEMBL1968127

$$$$

Generated by Molecular Materials Informatics

 20 22  0  0  0  0  0  0  0  0999 V2000
   11.1212   -6.2189    0.0000 C   0  0  0  0  0  0  0  0  0  0  0  0
   10.2272   -5.0068    0.0000 C   0  0  0  0  0  0  0  0  0  0  0  0
    8.8030   -5.4840    0.0000 C   0  0  0  0  0  0  0  0  0  0  0  0
   10.2348   -7.4385    0.0000 S   0  0  0  0  0  0  0  0  0  0  0  0
    8.8030   -6.9840    0.0000 C   0  0  0  0  0  0  0  0  0  0  0  0
   12.6211   -6.2113    0.0000 C   0  0  0  0  0  0  0  0  0  0  0  0
    7.5000   -4.7340    0.0000 C   0  0  0  0  0  0  0  0  0  0  0  0
    7.4849   -3.2341    0.0000 O   0  0  0  0  0  0  0  0  0  0  0  0
    6.2046   -6.9916    0.0000 N   0  0  0  0  0  0  0  0  0  0  0  0
   13.3634   -4.9008    0.0000 O   0  0  0  0  0  0  0  0  0  0  0  0
   13.3711   -7.5067    0.0000 N   0  0  0  0  0  0  0  0  0  0  0  0
    6.1895   -2.4917    0.0000 C   0  0  0  0  0  0  0  0  0  0  0  0
    7.5000   -7.7416    0.0000 C   0  0  0  0  0  0  0  0  0  0  0  0
    6.2046   -5.4840    0.0000 C   0  0  0  0  0  0  0  0  0  0  0  0
    3.5987   -0.9918    0.0000 C   0  0  0  0  0  0  0  0  0  0  0  0
    2.2956   -0.2569    0.0000 Br  0  0  0  0  0  0  0  0  0  0  0  0
    4.9092   -3.2417    0.0000 C   0  0  0  0  0  0  0  0  0  0  0  0
    6.1895   -0.9918    0.0000 C   0  0  0  0  0  0  0  0  0  0  0  0
    4.8941   -0.2418    0.0000 C   0  0  0  0  0  0  0  0  0  0  0  0
    3.5987   -2.5068    0.0000 C   0  0  0  0  0  0  0  0  0  0  0  0
  2  1  2  0  0  0  0
  3  2  1  0  0  0  0
  4  1  1  0  0  0  0
  5  4  1  0  0  0  0
  6  1  1  0  0  0  0
  7  3  2  0  0  0  0
  8  7  1  0  0  0  0
  9 13  1  0  0  0  0
 10  6  2  0  0  0  0
 11  6  1  0  0  0  0
 12  8  1  0  0  0  0
 13  5  2  0  0  0  0
 14  7  1  0  0  0  0
 15 19  2  0  0  0  0
 16 15  1  0  0  0  0
 17 12  1  0  0  0  0
 18 12  2  0  0  0  0
 19 18  1  0  0  0  0
 20 17  2  0  0  0  0
  3  5  1  0  0  0  0
 14  9  2  0  0  0  0
 15 20  1  0  0  0  0
M  END
> <Value>
5.899998417198648

> <Relation>
<

> <SourceURI>
mol:CHEMBL116070

$$$$

Generated by Molecular Materials Informatics

 23 26  0  0  0  0  0  0  0  0999 V2000
   -4.6828    3.0608    0.0000 Cl  0  0  0  0  0  0  0  0  0  0  0  0
   -1.1317    8.9463    0.0000 O   0  0  0  0  0  0  0  0  0  0  0  0
   -0.2811    2.1253    0.0000 N   0  0  0  0  0  0  0  0  0  0  0  0
   -0.8213   -2.8430    0.0000 N   0  0  0  0  0  0  0  0  0  0  0  0
   -2.2118    3.8637    0.0000 N   0  0  0  0  0  0  0  0  0  0  0  0
    1.9043   -3.1296    0.0000 N   0  0  0  0  0  0  0  0  0  0  0  0
    0.2591    4.6666    0.0000 N   0  0  0  0  0  0  0  0  0  0  0  0
   -0.8213   -0.4161    0.0000 C   0  0  0  0  0  0  0  0  0  0  0  0
    0.6053   -0.8796    0.0000 C   0  0  0  0  0  0  0  0  0  0  0  0
   -1.2849    1.0106    0.0000 C   0  0  0  0  0  0  0  0  0  0  0  0
    0.6053   -2.3796    0.0000 C   0  0  0  0  0  0  0  0  0  0  0  0
   -1.7029   -1.6296    0.0000 C   0  0  0  0  0  0  0  0  0  0  0  0
   -0.7448    3.5519    0.0000 C   0  0  0  0  0  0  0  0  0  0  0  0
   -2.7520    1.3224    0.0000 C   0  0  0  0  0  0  0  0  0  0  0  0
   -3.2157    2.7490    0.0000 C   0  0  0  0  0  0  0  0  0  0  0  0
    1.9043   -0.1296    0.0000 C   0  0  0  0  0  0  0  0  0  0  0  0
   -0.2046    6.0932    0.0000 C   0  0  0  0  0  0  0  0  0  0  0  0
    3.2033   -0.8796    0.0000 C   0  0  0  0  0  0  0  0  0  0  0  0
    3.2033   -2.3796    0.0000 C   0  0  0  0  0  0  0  0  0  0  0  0
    0.7993    7.2079    0.0000 C   0  0  0  0  0  0  0  0  0  0  0  0
   -1.6717    6.4050    0.0000 C   0  0  0  0  0  0  0  0  0  0  0  0
    0.3356    8.6345    0.0000 C   0  0  0  0  0  0  0  0  0  0  0  0
   -2.1353    7.8315    0.0000 C   0  0  0  0  0  0  0  0  0  0  0  0
  1 15  1  0  0  0  0
  2 22  1  0  0  0  0
  2 23  1  0  0  0  0
  3 10  2  0  0  0  0
  3 13  1  0  0  0  0
  4 11  1  0  0  0  0
  4 12  1  0  0  0  0
  5 13  2  0  0  0  0
  5 15  1  0  0  0  0
  6 11  2  0  0  0  0
  6 19  1  0  0  0  0
  7 13  1  0  0  0  0
  7 17  1  0  0  0  0
  8  9  1  0  0  0  0
  8 10  1  0  0  0  0
  8 12  2  0  0  0  0
  9 11  1  0  0  0  0
  9 16  2  0  0  0  0
 10 14  1  0  0  0  0
 14 15  2  0  0  0  0
 16 18  1  0  0  0  0
 17 20  1  0  0  0  0
 17 21  1  0  0  0  0
 18 19  2  0  0  0  0
 20 22  1  0  0  0  0
 21 23  1  0  0  0  0
M  END
> <Value>
6.699991797446187

> <Relation>
=

> <SourceURI>
mol:CHEMBL1980253

$$$$

Generated by Molecular Materials Informatics

 17 19  0  0  0  0  0  0  0  0999 V2000
    3.1571    5.4521    0.0000 Br  0  0  0  0  0  0  0  0  0  0  0  0
    0.4315   -3.2615    0.0000 N   0  0  0  0  0  0  0  0  0  0  0  0
   -0.4501   -2.0479    0.0000 N   0  0  0  0  0  0  0  0  0  0  0  0
   -0.0319    0.5921    0.0000 N   0  0  0  0  0  0  0  0  0  0  0  0
    1.8581   -1.2979    0.0000 C   0  0  0  0  0  0  0  0  0  0  0  0
    3.1571   -0.5479    0.0000 C   0  0  0  0  0  0  0  0  0  0  0  0
    1.8581   -2.7979    0.0000 C   0  0  0  0  0  0  0  0  0  0  0  0
    0.4315   -0.8344    0.0000 C   0  0  0  0  0  0  0  0  0  0  0  0
    3.1571    0.9521    0.0000 C   0  0  0  0  0  0  0  0  0  0  0  0
    4.4562   -1.2979    0.0000 C   0  0  0  0  0  0  0  0  0  0  0  0
    3.1571   -3.5479    0.0000 C   0  0  0  0  0  0  0  0  0  0  0  0
    4.4562   -2.7979    0.0000 C   0  0  0  0  0  0  0  0  0  0  0  0
    1.8581    1.7021    0.0000 C   0  0  0  0  0  0  0  0  0  0  0  0
    4.4562    1.7021    0.0000 C   0  0  0  0  0  0  0  0  0  0  0  0
    3.1571    3.9521    0.0000 C   0  0  0  0  0  0  0  0  0  0  0  0
    1.8581    3.2021    0.0000 C   0  0  0  0  0  0  0  0  0  0  0  0
    4.4562    3.2021    0.0000 C   0  0  0  0  0  0  0  0  0  0  0  0
  1 15  1  0  0  0  0
  2  3  1  0  0  0  0
  2  7  1  0  0  0  0
  3  8  2  0  0  0  0
  4  8  1  0  0  0  0
  5  6  2  0  0  0  0
  5  7  1  0  0  0  0
  5  8  1  0  0  0  0
  6  9  1  0  0  0  0
  6 10  1  0  0  0  0
  7 11  2  0  0  0  0
  9 13  2  0  0  0  0
  9 14  1  0  0  0  0
 10 12  2  0  0  0  0
 11 12  1  0  0  0  0
 13 16  1  0  0  0  0
 14 17  2  0  0  0  0
 15 16  2  0  0  0  0
 15 17  1  0  0  0  0
M  END
> <Value>
5.899998417198648

> <Relation>
<

> <SourceURI>
mol:CHEMBL1990346

$$$$

Generated by Molecular Materials Informatics

 19 21  0  0  0  0  0  0  0  0999 V2000
    9.2145   -3.9417    0.0000 Cl  0  0  0  0  0  0  0  0  0  0  0  0
    4.0183    0.5584    0.0000 O   0  0  0  0  0  0  0  0  0  0  0  0
    2.7192   -1.6916    0.0000 N   0  0  0  0  0  0  0  0  0  0  0  0
   -2.6044    1.0218    0.0000 N   0  0  0  0  0  0  0  0  0  0  0  0
   -3.4860   -0.1916    0.0000 N   0  0  0  0  0  0  0  0  0  0  0  0
   -1.1778   -0.9416    0.0000 C   0  0  0  0  0  0  0  0  0  0  0  0
   -1.1778    0.5584    0.0000 C   0  0  0  0  0  0  0  0  0  0  0  0
    1.4203   -0.9416    0.0000 C   0  0  0  0  0  0  0  0  0  0  0  0
    0.1212   -1.6916    0.0000 C   0  0  0  0  0  0  0  0  0  0  0  0
    4.0183   -0.9416    0.0000 C   0  0  0  0  0  0  0  0  0  0  0  0
    0.1212    1.3084    0.0000 C   0  0  0  0  0  0  0  0  0  0  0  0
    1.4203    0.5584    0.0000 C   0  0  0  0  0  0  0  0  0  0  0  0
    5.3174   -1.6916    0.0000 C   0  0  0  0  0  0  0  0  0  0  0  0
   -2.6044   -1.4053    0.0000 C   0  0  0  0  0  0  0  0  0  0  0  0
    6.6163   -0.9416    0.0000 C   0  0  0  0  0  0  0  0  0  0  0  0
    5.3174   -3.1916    0.0000 C   0  0  0  0  0  0  0  0  0  0  0  0
    7.9154   -3.1916    0.0000 C   0  0  0  0  0  0  0  0  0  0  0  0
    7.9154   -1.6916    0.0000 C   0  0  0  0  0  0  0  0  0  0  0  0
    6.6163   -3.9417    0.0000 C   0  0  0  0  0  0  0  0  0  0  0  0
  1 17  1  0  0  0  0
  2 10  2  0  0  0  0
  3  8  1  0  0  0  0
  3 10  1  0  0  0  0
  4  5  1  0  0  0  0
  4  7  1  0  0  0  0
  5 14  2  0  0  0  0
  6  7  1  0  0  0  0
  6  9  2  0  0  0  0
  6 14  1  0  0  0  0
  7 11  2  0  0  0  0
  8  9  1  0  0  0  0
  8 12  2  0  0  0  0
 10 13  1  0  0  0  0
 11 12  1  0  0  0  0
 13 15  2  0  0  0  0
 13 16  1  0  0  0  0
 15 18  1  0  0  0  0
 16 19  2  0  0  0  0
 17 18  2  0  0  0  0
 17 19  1  0  0  0  0
M  END
> <Value>
5.899998417198648

> <Relation>
<

> <SourceURI>
mol:CHEMBL1973808

$$$$

Generated by Molecular Materials Informatics

 18 21  0  0  0  0  0  0  0  0999 V2000
   -4.1218   -2.6428    0.0000 O   0  0  0  0  0  0  0  0  0  0  0  0
   -4.1218   -0.2157    0.0000 O   0  0  0  0  0  0  0  0  0  0  0  0
    1.2019   -4.4292    0.0000 N   0  0  0  0  0  0  0  0  0  0  0  0
    3.8001   -4.4292    0.0000 N   0  0  0  0  0  0  0  0  0  0  0  0
    4.9148   -1.9255    0.0000 N   0  0  0  0  0  0  0  0  0  0  0  0
    1.2019   -2.9292    0.0000 C   0  0  0  0  0  0  0  0  0  0  0  0
    2.5010   -2.1791    0.0000 C   0  0  0  0  0  0  0  0  0  0  0  0
   -0.0972   -2.1791    0.0000 C   0  0  0  0  0  0  0  0  0  0  0  0
   -2.6952   -2.1791    0.0000 C   0  0  0  0  0  0  0  0  0  0  0  0
    3.8001   -2.9292    0.0000 C   0  0  0  0  0  0  0  0  0  0  0  0
   -2.6952   -0.6791    0.0000 C   0  0  0  0  0  0  0  0  0  0  0  0
   -1.3961   -2.9292    0.0000 C   0  0  0  0  0  0  0  0  0  0  0  0
   -0.0972   -0.6791    0.0000 C   0  0  0  0  0  0  0  0  0  0  0  0
   -1.3961    0.0709    0.0000 C   0  0  0  0  0  0  0  0  0  0  0  0
    2.8128   -0.7121    0.0000 C   0  0  0  0  0  0  0  0  0  0  0  0
    2.5010   -5.1791    0.0000 C   0  0  0  0  0  0  0  0  0  0  0  0
    4.3046   -0.5552    0.0000 C   0  0  0  0  0  0  0  0  0  0  0  0
   -5.0034   -1.4291    0.0000 C   0  0  0  0  0  0  0  0  0  0  0  0
  1  9  1  0  0  0  0
  1 18  1  0  0  0  0
  2 11  1  0  0  0  0
  2 18  1  0  0  0  0
  3  6  2  0  0  0  0
  3 16  1  0  0  0  0
  4 10  1  0  0  0  0
  4 16  2  0  0  0  0
  5 10  1  0  0  0  0
  5 17  1  0  0  0  0
  6  7  1  0  0  0  0
  6  8  1  0  0  0  0
  7 10  2  0  0  0  0
  7 15  1  0  0  0  0
  8 12  1  0  0  0  0
  8 13  2  0  0  0  0
  9 11  1  0  0  0  0
  9 12  2  0  0  0  0
 11 14  2  0  0  0  0
 13 14  1  0  0  0  0
 15 17  2  0  0  0  0
M  END
> <Value>
5.700000503883016

> <Relation>
=

> <SourceURI>
mol:CHEMBL2004515

$$$$

Generated by Molecular Materials Informatics

 24 27  0  0  0  0  0  0  0  0999 V2000
   -4.6828    2.7398    0.0000 Cl  0  0  0  0  0  0  0  0  0  0  0  0
   -1.5951   10.0520    0.0000 O   0  0  0  0  0  0  0  0  0  0  0  0
   -0.2811    1.8043    0.0000 N   0  0  0  0  0  0  0  0  0  0  0  0
   -0.8213   -3.1640    0.0000 N   0  0  0  0  0  0  0  0  0  0  0  0
   -2.7520    1.0014    0.0000 N   0  0  0  0  0  0  0  0  0  0  0  0
    1.9043   -3.4506    0.0000 N   0  0  0  0  0  0  0  0  0  0  0  0
    0.2591    4.3456    0.0000 N   0  0  0  0  0  0  0  0  0  0  0  0
   -0.8213   -0.7371    0.0000 C   0  0  0  0  0  0  0  0  0  0  0  0
    0.6053   -1.2006    0.0000 C   0  0  0  0  0  0  0  0  0  0  0  0
   -1.2849    0.6896    0.0000 C   0  0  0  0  0  0  0  0  0  0  0  0
    0.6053   -2.7006    0.0000 C   0  0  0  0  0  0  0  0  0  0  0  0
   -1.7029   -1.9506    0.0000 C   0  0  0  0  0  0  0  0  0  0  0  0
   -0.7448    3.2309    0.0000 C   0  0  0  0  0  0  0  0  0  0  0  0
    1.9043   -0.4506    0.0000 C   0  0  0  0  0  0  0  0  0  0  0  0
   -3.2157    2.4280    0.0000 C   0  0  0  0  0  0  0  0  0  0  0  0
   -2.2118    3.5427    0.0000 C   0  0  0  0  0  0  0  0  0  0  0  0
   -0.2046    5.7722    0.0000 C   0  0  0  0  0  0  0  0  0  0  0  0
    3.2033   -1.2006    0.0000 C   0  0  0  0  0  0  0  0  0  0  0  0
    3.2033   -2.7006    0.0000 C   0  0  0  0  0  0  0  0  0  0  0  0
   -1.6717    6.0840    0.0000 C   0  0  0  0  0  0  0  0  0  0  0  0
    0.7993    6.8869    0.0000 C   0  0  0  0  0  0  0  0  0  0  0  0
   -1.1317    8.6253    0.0000 C   0  0  0  0  0  0  0  0  0  0  0  0
   -2.1353    7.5105    0.0000 C   0  0  0  0  0  0  0  0  0  0  0  0
    0.3356    8.3134    0.0000 C   0  0  0  0  0  0  0  0  0  0  0  0
  1 15  1  0  0  0  0
  2 22  1  0  0  0  0
  3 10  2  0  0  0  0
  3 13  1  0  0  0  0
  4 11  1  0  0  0  0
  4 12  1  0  0  0  0
  5 10  1  0  0  0  0
  5 15  2  0  0  0  0
  6 11  2  0  0  0  0
  6 19  1  0  0  0  0
  7 13  1  0  0  0  0
  7 17  1  0  0  0  0
  8  9  1  0  0  0  0
  8 10  1  0  0  0  0
  8 12  2  0  0  0  0
  9 11  1  0  0  0  0
  9 14  2  0  0  0  0
 13 16  2  0  0  0  0
 14 18  1  0  0  0  0
 15 16  1  0  0  0  0
 17 20  1  0  0  0  0
 17 21  1  0  0  0  0
 18 19  2  0  0  0  0
 20 23  1  0  0  0  0
 21 24  1  0  0  0  0
 22 23  1  0  0  0  0
 22 24  1  0  0  0  0
M  END
> <Value>
6.499996931948306

> <Relation>
=

> <SourceURI>
mol:CHEMBL1991674

$$$$

Generated by Molecular Materials Informatics

 28 32  0  0  0  0  0  0  0  0999 V2000
    5.0719   -3.2819    0.0000 S   0  0  0  0  0  0  0  0  0  0  0  0
   -1.3215    3.0035    0.0000 O   0  0  0  0  0  0  0  0  0  0  0  0
    7.1999   -1.5548    0.0000 N   0  0  0  0  0  0  0  0  0  0  0  0
    6.5248    0.9540    0.0000 N   0  0  0  0  0  0  0  0  0  0  0  0
    4.0146    1.6238    0.0000 N   0  0  0  0  0  0  0  0  0  0  0  0
   -2.2500    0.5769    0.0000 N   0  0  0  0  0  0  0  0  0  0  0  0
   -3.8871    2.5942    0.0000 N   0  0  0  0  0  0  0  0  0  0  0  0
    3.3539   -1.5675    0.0000 C   0  0  0  0  0  0  0  0  0  0  0  0
    4.6897   -0.8851    0.0000 C   0  0  0  0  0  0  0  0  0  0  0  0
    3.5900   -3.0488    0.0000 C   0  0  0  0  0  0  0  0  0  0  0  0
    1.9529   -1.0313    0.0000 C   0  0  0  0  0  0  0  0  0  0  0  0
    5.7515   -1.9446    0.0000 C   0  0  0  0  0  0  0  0  0  0  0  0
    0.7882   -1.9766    0.0000 C   0  0  0  0  0  0  0  0  0  0  0  0
    5.0764    0.5642    0.0000 C   0  0  0  0  0  0  0  0  0  0  0  0
    2.4253   -3.9941    0.0000 C   0  0  0  0  0  0  0  0  0  0  0  0
    1.0244   -3.4579    0.0000 C   0  0  0  0  0  0  0  0  0  0  0  0
    1.7167    0.4500    0.0000 C   0  0  0  0  0  0  0  0  0  0  0  0
   -0.6127   -1.4406    0.0000 C   0  0  0  0  0  0  0  0  0  0  0  0
   -0.8489    0.0407    0.0000 C   0  0  0  0  0  0  0  0  0  0  0  0
    0.3158    0.9860    0.0000 C   0  0  0  0  0  0  0  0  0  0  0  0
    7.5866   -0.1055    0.0000 C   0  0  0  0  0  0  0  0  0  0  0  0
   -2.4862    2.0582    0.0000 C   0  0  0  0  0  0  0  0  0  0  0  0
   -4.1233    4.0755    0.0000 C   0  0  0  0  0  0  0  0  0  0  0  0
   -5.5242    4.6117    0.0000 C   0  0  0  0  0  0  0  0  0  0  0  0
   -2.9586    5.0208    0.0000 C   0  0  0  0  0  0  0  0  0  0  0  0
   -5.7604    6.0930    0.0000 C   0  0  0  0  0  0  0  0  0  0  0  0
   -3.1948    6.5021    0.0000 C   0  0  0  0  0  0  0  0  0  0  0  0
   -4.5957    7.0381    0.0000 C   0  0  0  0  0  0  0  0  0  0  0  0
  1 10  1  0  0  0  0
  1 12  1  0  0  0  0
  2 22  2  0  0  0  0
  3 12  1  0  0  0  0
  3 21  2  0  0  0  0
  4 14  2  0  0  0  0
  4 21  1  0  0  0  0
  5 14  1  0  0  0  0
  6 19  1  0  0  0  0
  6 22  1  0  0  0  0
  7 22  1  0  0  0  0
  7 23  1  0  0  0  0
  8  9  1  0  0  0  0
  8 10  2  0  0  0  0
  8 11  1  0  0  0  0
  9 12  2  0  0  0  0
  9 14  1  0  0  0  0
 10 15  1  0  0  0  0
 11 13  1  0  0  0  0
 11 17  2  0  0  0  0
 13 16  1  0  0  0  0
 13 18  2  0  0  0  0
 15 16  1  0  0  0  0
 17 20  1  0  0  0  0
 18 19  1  0  0  0  0
 19 20  2  0  0  0  0
 23 24  2  0  0  0  0
 23 25  1  0  0  0  0
 24 26  1  0  0  0  0
 25 27  2  0  0  0  0
 26 28  2  0  0  0  0
 27 28  1  0  0  0  0
M  END
> <Value>
5.899998417198648

> <Relation>
<

> <SourceURI>
mol:CHEMBL1994693

$$$$

Generated by Molecular Materials Informatics

 38 41  0  0  0  0  0  0  0  0999 V2000
  -13.1611   -4.5657    0.0000 O   0  0  0  0  0  0  0  0  0  0  0  0
  -13.7847   -7.5003    0.0000 O   0  0  0  0  0  0  0  0  0  0  0  0
   -3.7415   -3.0287    0.0000 O   0  0  0  0  0  0  0  0  0  0  0  0
   -1.1435   -1.5287    0.0000 O   0  0  0  0  0  0  0  0  0  0  0  0
    4.0527   -3.0287    0.0000 O   0  0  0  0  0  0  0  0  0  0  0  0
   -8.9376   -3.0287    0.0000 N   0  0  0  0  0  0  0  0  0  0  0  0
   -9.0944   -1.5368    0.0000 N   0  0  0  0  0  0  0  0  0  0  0  0
  -10.6198   -5.1059    0.0000 N   0  0  0  0  0  0  0  0  0  0  0  0
    0.1556   -3.7787    0.0000 N   0  0  0  0  0  0  0  0  0  0  0  0
  -10.3080   -3.6387    0.0000 C   0  0  0  0  0  0  0  0  0  0  0  0
  -10.5616   -1.2250    0.0000 C   0  0  0  0  0  0  0  0  0  0  0  0
   -7.6385   -3.7787    0.0000 C   0  0  0  0  0  0  0  0  0  0  0  0
  -11.3116   -2.5239    0.0000 C   0  0  0  0  0  0  0  0  0  0  0  0
  -11.1716    0.1453    0.0000 C   0  0  0  0  0  0  0  0  0  0  0  0
  -11.2435   -8.0403    0.0000 C   0  0  0  0  0  0  0  0  0  0  0  0
  -12.0464   -5.5694    0.0000 C   0  0  0  0  0  0  0  0  0  0  0  0
  -12.3582   -7.0367    0.0000 C   0  0  0  0  0  0  0  0  0  0  0  0
  -11.5555   -9.5076    0.0000 C   0  0  0  0  0  0  0  0  0  0  0  0
   -6.3395   -3.0287    0.0000 C   0  0  0  0  0  0  0  0  0  0  0  0
  -10.4407  -10.5112    0.0000 C   0  0  0  0  0  0  0  0  0  0  0  0
   -7.6385   -5.2787    0.0000 C   0  0  0  0  0  0  0  0  0  0  0  0
   -5.0405   -3.7787    0.0000 C   0  0  0  0  0  0  0  0  0  0  0  0
   -9.8169   -7.5768    0.0000 C   0  0  0  0  0  0  0  0  0  0  0  0
  -12.9820   -9.9712    0.0000 C   0  0  0  0  0  0  0  0  0  0  0  0
  -11.7818    1.5157    0.0000 C   0  0  0  0  0  0  0  0  0  0  0  0
  -12.5420   -0.4647    0.0000 C   0  0  0  0  0  0  0  0  0  0  0  0
   -9.8015    0.7555    0.0000 C   0  0  0  0  0  0  0  0  0  0  0  0
   -6.3395   -6.0287    0.0000 C   0  0  0  0  0  0  0  0  0  0  0  0
   -9.0140  -10.0477    0.0000 C   0  0  0  0  0  0  0  0  0  0  0  0
   -5.0405   -5.2787    0.0000 C   0  0  0  0  0  0  0  0  0  0  0  0
   -8.7022   -8.5805    0.0000 C   0  0  0  0  0  0  0  0  0  0  0  0
  -10.7525  -11.9785    0.0000 C   0  0  0  0  0  0  0  0  0  0  0  0
  -13.2938  -11.4383    0.0000 C   0  0  0  0  0  0  0  0  0  0  0  0
  -12.1791  -12.4421    0.0000 C   0  0  0  0  0  0  0  0  0  0  0  0
   -2.4424   -3.7787    0.0000 C   0  0  0  0  0  0  0  0  0  0  0  0
   -1.1435   -3.0287    0.0000 C   0  0  0  0  0  0  0  0  0  0  0  0
    1.4547   -3.0287    0.0000 C   0  0  0  0  0  0  0  0  0  0  0  0
    2.7538   -3.7787    0.0000 C   0  0  0  0  0  0  0  0  0  0  0  0
  1 16  2  0  0  0  0
  2 17  2  0  0  0  0
  3 22  1  0  0  0  0
  3 35  1  0  0  0  0
  4 36  2  0  0  0  0
  5 38  1  0  0  0  0
  6  7  1  0  0  0  0
  6 10  1  0  0  0  0
  6 12  1  0  0  0  0
  7 11  2  0  0  0  0
  8 10  1  0  0  0  0
  8 16  1  0  0  0  0
  9 36  1  0  0  0  0
  9 37  1  0  0  0  0
 10 13  2  0  0  0  0
 11 13  1  0  0  0  0
 11 14  1  0  0  0  0
 12 19  1  0  0  0  0
 12 21  2  0  0  0  0
 14 25  1  0  0  0  0
 14 26  1  0  0  0  0
 14 27  1  0  0  0  0
 15 17  1  0  0  0  0
 15 18  1  0  0  0  0
 15 23  2  0  0  0  0
 16 17  1  0  0  0  0
 18 20  1  0  0  0  0
 18 24  2  0  0  0  0
 19 22  2  0  0  0  0
 20 29  1  0  0  0  0
 20 32  2  0  0  0  0
 21 28  1  0  0  0  0
 22 30  1  0  0  0  0
 23 31  1  0  0  0  0
 24 33  1  0  0  0  0
 28 30  2  0  0  0  0
 29 31  2  0  0  0  0
 32 34  1  0  0  0  0
 33 34  2  0  0  0  0
 35 36  1  0  0  0  0
 37 38  1  0  0  0  0
M  END
> <Value>
5.300000202445418

> <Relation>
<

> <SourceURI>
mol:CHEMBL1998680

$$$$

Generated by Molecular Materials Informatics

 39 44  0  0  0  0  0  0  0  0999 V2000
    1.8153    5.9467    0.0000 O   0  0  0  0  0  0  0  0  0  0  0  0
  -10.8514   -2.1003    0.0000 O   0  0  0  0  0  0  0  0  0  0  0  0
  -14.6487   -0.9471    0.0000 O   0  0  0  0  0  0  0  0  0  0  0  0
   -5.3701    0.3402    0.0000 N   0  0  0  0  0  0  0  0  0  0  0  0
   -5.0581    1.8073    0.0000 N   0  0  0  0  0  0  0  0  0  0  0  0
   -3.7592   -1.8771    0.0000 N   0  0  0  0  0  0  0  0  0  0  0  0
   -1.2178   -1.3369    0.0000 N   0  0  0  0  0  0  0  0  0  0  0  0
    1.8153    8.3738    0.0000 N   0  0  0  0  0  0  0  0  0  0  0  0
   -0.5663    7.1602    0.0000 N   0  0  0  0  0  0  0  0  0  0  0  0
   -0.4151    1.1340    0.0000 N   0  0  0  0  0  0  0  0  0  0  0  0
   -2.9563    0.5938    0.0000 C   0  0  0  0  0  0  0  0  0  0  0  0
   -4.0711   -0.4098    0.0000 C   0  0  0  0  0  0  0  0  0  0  0  0
   -3.5663    1.9642    0.0000 C   0  0  0  0  0  0  0  0  0  0  0  0
   -2.8163    3.2631    0.0000 C   0  0  0  0  0  0  0  0  0  0  0  0
   -1.5298    0.1304    0.0000 C   0  0  0  0  0  0  0  0  0  0  0  0
   -6.7403   -0.2700    0.0000 C   0  0  0  0  0  0  0  0  0  0  0  0
   -3.5663    4.5622    0.0000 C   0  0  0  0  0  0  0  0  0  0  0  0
   -1.3163    3.2631    0.0000 C   0  0  0  0  0  0  0  0  0  0  0  0
   -2.3325   -2.3407    0.0000 C   0  0  0  0  0  0  0  0  0  0  0  0
    3.2419    6.4102    0.0000 C   0  0  0  0  0  0  0  0  0  0  0  0
    3.2419    7.9102    0.0000 C   0  0  0  0  0  0  0  0  0  0  0  0
    0.9337    7.1602    0.0000 C   0  0  0  0  0  0  0  0  0  0  0  0
   -6.8972   -1.7618    0.0000 C   0  0  0  0  0  0  0  0  0  0  0  0
   -7.9540    0.6117    0.0000 C   0  0  0  0  0  0  0  0  0  0  0  0
   -1.3163    5.8613    0.0000 C   0  0  0  0  0  0  0  0  0  0  0  0
   -2.8163    5.8613    0.0000 C   0  0  0  0  0  0  0  0  0  0  0  0
   -0.5663    4.5622    0.0000 C   0  0  0  0  0  0  0  0  0  0  0  0
    4.5409    5.6602    0.0000 C   0  0  0  0  0  0  0  0  0  0  0  0
    4.5409    8.6602    0.0000 C   0  0  0  0  0  0  0  0  0  0  0  0
   -8.2674   -2.3718    0.0000 C   0  0  0  0  0  0  0  0  0  0  0  0
   -9.3241    0.0017    0.0000 C   0  0  0  0  0  0  0  0  0  0  0  0
   -9.4811   -1.4902    0.0000 C   0  0  0  0  0  0  0  0  0  0  0  0
    5.8399    7.9102    0.0000 C   0  0  0  0  0  0  0  0  0  0  0  0
    5.8399    6.4102    0.0000 C   0  0  0  0  0  0  0  0  0  0  0  0
    4.5409    4.1602    0.0000 C   0  0  0  0  0  0  0  0  0  0  0  0
    7.1389    8.6602    0.0000 C   0  0  0  0  0  0  0  0  0  0  0  0
  -12.0649   -1.2187    0.0000 C   0  0  0  0  0  0  0  0  0  0  0  0
  -13.4352   -1.8287    0.0000 C   0  0  0  0  0  0  0  0  0  0  0  0
  -16.0191   -1.5571    0.0000 C   0  0  0  0  0  0  0  0  0  0  0  0
  1 20  1  0  0  0  0
  1 22  1  0  0  0  0
  2 32  1  0  0  0  0
  2 37  1  0  0  0  0
  3 38  1  0  0  0  0
  3 39  1  0  0  0  0
  4  5  1  0  0  0  0
  4 12  1  0  0  0  0
  4 16  1  0  0  0  0
  5 13  2  0  0  0  0
  6 12  2  0  0  0  0
  6 19  1  0  0  0  0
  7 15  1  0  0  0  0
  7 19  2  0  0  0  0
  8 21  1  0  0  0  0
  8 22  2  0  0  0  0
  9 22  1  0  0  0  0
  9 25  1  0  0  0  0
 10 15  1  0  0  0  0
 11 12  1  0  0  0  0
 11 13  1  0  0  0  0
 11 15  2  0  0  0  0
 13 14  1  0  0  0  0
 14 17  2  0  0  0  0
 14 18  1  0  0  0  0
 16 23  1  0  0  0  0
 16 24  1  0  0  0  0
 17 26  1  0  0  0  0
 18 27  2  0  0  0  0
 20 21  1  0  0  0  0
 20 28  2  0  0  0  0
 21 29  2  0  0  0  0
 23 30  1  0  0  0  0
 24 31  1  0  0  0  0
 25 26  2  0  0  0  0
 25 27  1  0  0  0  0
 28 34  1  0  0  0  0
 28 35  1  0  0  0  0
 29 33  1  0  0  0  0
 30 32  1  0  0  0  0
 31 32  1  0  0  0  0
 33 34  2  0  0  0  0
 33 36  1  0  0  0  0
 37 38  1  0  0  0  0
M  END
> <Value>
7.199970640755866

> <Relation>
=

> <SourceURI>
mol:CHEMBL1984162

$$$$

Generated by Molecular Materials Informatics

 23 25  0  0  0  0  0  0  0  0999 V2000
    4.2318   -4.9542    0.0000 O   0  0  0  0  0  0  0  0  0  0  0  0
    0.2071   -2.4178    0.0000 N   0  0  0  0  0  0  0  0  0  0  0  0
    2.9327    1.7958    0.0000 N   0  0  0  0  0  0  0  0  0  0  0  0
    1.6336   -4.9542    0.0000 N   0  0  0  0  0  0  0  0  0  0  0  0
    5.5307    4.7958    0.0000 N   0  0  0  0  0  0  0  0  0  0  0  0
    1.6336   -1.9541    0.0000 C   0  0  0  0  0  0  0  0  0  0  0  0
    1.6336   -0.4541    0.0000 C   0  0  0  0  0  0  0  0  0  0  0  0
   -0.6746   -1.2041    0.0000 C   0  0  0  0  0  0  0  0  0  0  0  0
    2.9327   -2.7041    0.0000 C   0  0  0  0  0  0  0  0  0  0  0  0
    2.9327    0.2959    0.0000 C   0  0  0  0  0  0  0  0  0  0  0  0
    0.2071    0.0093    0.0000 C   0  0  0  0  0  0  0  0  0  0  0  0
   -2.1746   -1.2041    0.0000 C   0  0  0  0  0  0  0  0  0  0  0  0
    4.2318   -1.9541    0.0000 C   0  0  0  0  0  0  0  0  0  0  0  0
    4.2318   -0.4541    0.0000 C   0  0  0  0  0  0  0  0  0  0  0  0
    2.9327   -4.2041    0.0000 C   0  0  0  0  0  0  0  0  0  0  0  0
   -2.9246   -2.5032    0.0000 C   0  0  0  0  0  0  0  0  0  0  0  0
   -2.9246    0.0948    0.0000 C   0  0  0  0  0  0  0  0  0  0  0  0
   -4.4246   -2.5032    0.0000 C   0  0  0  0  0  0  0  0  0  0  0  0
   -4.4246    0.0948    0.0000 C   0  0  0  0  0  0  0  0  0  0  0  0
   -5.1746   -1.2041    0.0000 C   0  0  0  0  0  0  0  0  0  0  0  0
    4.2318    2.5458    0.0000 C   0  0  0  0  0  0  0  0  0  0  0  0
    4.2318    4.0458    0.0000 C   0  0  0  0  0  0  0  0  0  0  0  0
   -6.6746   -1.2041    0.0000 C   0  0  0  0  0  0  0  0  0  0  0  0
  1 15  2  0  0  0  0
  2  6  1  0  0  0  0
  2  8  1  0  0  0  0
  3 10  1  0  0  0  0
  3 21  1  0  0  0  0
  4 15  1  0  0  0  0
  5 22  1  0  0  0  0
  6  7  1  0  0  0  0
  6  9  2  0  0  0  0
  7 10  2  0  0  0  0
  7 11  1  0  0  0  0
  8 11  2  0  0  0  0
  8 12  1  0  0  0  0
  9 13  1  0  0  0  0
  9 15  1  0  0  0  0
 10 14  1  0  0  0  0
 12 16  2  0  0  0  0
 12 17  1  0  0  0  0
 13 14  2  0  0  0  0
 16 18  1  0  0  0  0
 17 19  2  0  0  0  0
 18 20  2  0  0  0  0
 19 20  1  0  0  0  0
 20 23  1  0  0  0  0
 21 22  1  0  0  0  0
M  END
> <Value>
6.699991797446187

> <Relation>
=

> <SourceURI>
mol:CHEMBL1996048

$$$$

Generated by Molecular Materials Informatics

 21 24  0  0  0  0  0  0  0  0999 V2000
    6.5115   -6.3141    0.0000 N   0  0  0  0  0  0  0  0  0  0  0  0
    8.0108   -6.2671    0.0000 C   0  0  0  0  0  0  0  0  0  0  0  0
    7.9297   -3.6704    0.0000 N   0  0  0  0  0  0  0  0  0  0  0  0
    8.7199   -4.9453    0.0000 C   0  0  0  0  0  0  0  0  0  0  0  0
   10.1766   -4.5879    0.0000 C   0  0  0  0  0  0  0  0  0  0  0  0
   10.2868   -3.0919    0.0000 C   0  0  0  0  0  0  0  0  0  0  0  0
    8.8980   -2.5249    0.0000 C   0  0  0  0  0  0  0  0  0  0  0  0
    5.7213   -5.0391    0.0000 C   0  0  0  0  0  0  0  0  0  0  0  0
    6.4304   -3.7171    0.0000 C   0  0  0  0  0  0  0  0  0  0  0  0
    5.6400   -2.4422    0.0000 C   0  0  0  0  0  0  0  0  0  0  0  0
    4.1407   -2.4891    0.0000 C   0  0  0  0  0  0  0  0  0  0  0  0
    3.4318   -3.8109    0.0000 C   0  0  0  0  0  0  0  0  0  0  0  0
    4.2220   -5.0859    0.0000 C   0  0  0  0  0  0  0  0  0  0  0  0
    8.8009   -7.5422    0.0000 O   0  0  0  0  0  0  0  0  0  0  0  0
    1.9326   -3.8577    0.0000 C   0  0  0  0  0  0  0  0  0  0  0  0
    1.1424   -2.5828    0.0000 N   0  0  0  0  0  0  0  0  0  0  0  0
   -0.3536   -2.4726    0.0000 C   0  0  0  0  0  0  0  0  0  0  0  0
   -0.7113   -1.0158    0.0000 C   0  0  0  0  0  0  0  0  0  0  0  0
    0.5638   -0.2257    0.0000 C   0  0  0  0  0  0  0  0  0  0  0  0
    1.7093   -1.1940    0.0000 C   0  0  0  0  0  0  0  0  0  0  0  0
    3.1660   -0.8366    0.0000 O   0  0  0  0  0  0  0  0  0  0  0  0
  9 10  1  0  0  0  0
  8  1  1  0  0  0  0
 10 11  2  0  0  0  0
  1  2  1  0  0  0  0
 11 12  1  0  0  0  0
  2  4  1  0  0  0  0
 12 13  2  0  0  0  0
 13  8  1  0  0  0  0
  4  5  2  0  0  0  0
  2 14  2  0  0  0  0
  5  6  1  0  0  0  0
 12 15  1  0  0  0  0
  6  7  2  0  0  0  0
 15 16  1  0  0  0  0
 16 17  1  0  0  0  0
  7  3  1  0  0  0  0
  3  4  1  0  0  0  0
  8  9  2  0  0  0  0
 17 18  1  0  0  0  0
 18 19  1  0  0  0  0
 19 20  1  0  0  0  0
 20 16  1  0  0  0  0
  3  9  1  0  0  0  0
 20 21  2  0  0  0  0
M  END
> <Value>
5.899998417198648

> <Relation>
<

> <SourceURI>
mol:CHEMBL539474

$$$$

Generated by Molecular Materials Informatics

 43 47  0  0  0  0  0  0  0  0999 V2000
   -3.8918   -0.1822    0.0000 Cl  0  0  0  0  0  0  0  0  0  0  0  0
    1.2813   -8.1330    0.0000 O   0  0  0  0  0  0  0  0  0  0  0  0
   -4.8650  -10.3546    0.0000 O   0  0  0  0  0  0  0  0  0  0  0  0
    6.4775   -6.6330    0.0000 O   0  0  0  0  0  0  0  0  0  0  0  0
   10.3746   -5.8830    0.0000 O   0  0  0  0  0  0  0  0  0  0  0  0
   -0.1745   -4.3912    0.0000 N   0  0  0  0  0  0  0  0  0  0  0  0
    2.5804   -5.8830    0.0000 N   0  0  0  0  0  0  0  0  0  0  0  0
   14.2717   -6.6330    0.0000 N   0  0  0  0  0  0  0  0  0  0  0  0
   -1.6418   -4.0793    0.0000 C   0  0  0  0  0  0  0  0  0  0  0  0
   -2.3918   -5.3782    0.0000 C   0  0  0  0  0  0  0  0  0  0  0  0
   -1.3881   -6.4930    0.0000 C   0  0  0  0  0  0  0  0  0  0  0  0
   -2.3918   -2.7802    0.0000 C   0  0  0  0  0  0  0  0  0  0  0  0
   -0.0178   -5.8830    0.0000 C   0  0  0  0  0  0  0  0  0  0  0  0
   -1.6418   -1.4812    0.0000 C   0  0  0  0  0  0  0  0  0  0  0  0
   -3.8918   -5.3782    0.0000 C   0  0  0  0  0  0  0  0  0  0  0  0
   -3.8918   -2.7802    0.0000 C   0  0  0  0  0  0  0  0  0  0  0  0
    1.2813   -6.6330    0.0000 C   0  0  0  0  0  0  0  0  0  0  0  0
   -2.3918   -0.1822    0.0000 C   0  0  0  0  0  0  0  0  0  0  0  0
   -0.1418   -1.4812    0.0000 C   0  0  0  0  0  0  0  0  0  0  0  0
   -1.7000   -7.9602    0.0000 C   0  0  0  0  0  0  0  0  0  0  0  0
   -4.6418   -4.0793    0.0000 C   0  0  0  0  0  0  0  0  0  0  0  0
   -1.6418    1.1168    0.0000 C   0  0  0  0  0  0  0  0  0  0  0  0
    0.6082   -0.1822    0.0000 C   0  0  0  0  0  0  0  0  0  0  0  0
   -3.1265   -8.4239    0.0000 C   0  0  0  0  0  0  0  0  0  0  0  0
   -0.1418    1.1168    0.0000 C   0  0  0  0  0  0  0  0  0  0  0  0
    0.6082   -2.7802    0.0000 C   0  0  0  0  0  0  0  0  0  0  0  0
   -6.6034  -12.2853    0.0000 C   0  0  0  0  0  0  0  0  0  0  0  0
   -5.1769  -11.8217    0.0000 C   0  0  0  0  0  0  0  0  0  0  0  0
   -3.4383   -9.8910    0.0000 C   0  0  0  0  0  0  0  0  0  0  0  0
    3.8793   -6.6330    0.0000 C   0  0  0  0  0  0  0  0  0  0  0  0
   -6.9152  -13.7524    0.0000 C   0  0  0  0  0  0  0  0  0  0  0  0
   -4.0621  -12.8255    0.0000 C   0  0  0  0  0  0  0  0  0  0  0  0
   -7.7181  -11.2815    0.0000 C   0  0  0  0  0  0  0  0  0  0  0  0
   -5.8005  -14.7562    0.0000 C   0  0  0  0  0  0  0  0  0  0  0  0
   -8.3420  -14.2161    0.0000 C   0  0  0  0  0  0  0  0  0  0  0  0
   -4.3740  -14.2926    0.0000 C   0  0  0  0  0  0  0  0  0  0  0  0
    5.1784   -5.8830    0.0000 C   0  0  0  0  0  0  0  0  0  0  0  0
   -9.1447  -11.7452    0.0000 C   0  0  0  0  0  0  0  0  0  0  0  0
   -9.4567  -13.2124    0.0000 C   0  0  0  0  0  0  0  0  0  0  0  0
    7.7764   -5.8830    0.0000 C   0  0  0  0  0  0  0  0  0  0  0  0
    9.0755   -6.6330    0.0000 C   0  0  0  0  0  0  0  0  0  0  0  0
   11.6735   -6.6330    0.0000 C   0  0  0  0  0  0  0  0  0  0  0  0
   12.9726   -5.8830    0.0000 C   0  0  0  0  0  0  0  0  0  0  0  0
  1 18  1  0  0  0  0
  2 17  2  0  0  0  0
  3 28  1  0  0  0  0
  3 29  1  0  0  0  0
  4 37  1  0  0  0  0
  4 40  1  0  0  0  0
  5 41  1  0  0  0  0
  5 42  1  0  0  0  0
  6  9  1  0  0  0  0
  6 13  1  0  0  0  0
  7 17  1  0  0  0  0
  7 30  1  0  0  0  0
  8 43  1  0  0  0  0
  9 10  2  0  0  0  0
  9 12  1  0  0  0  0
 10 11  1  0  0  0  0
 10 15  1  0  0  0  0
 11 13  2  0  0  0  0
 11 20  1  0  0  0  0
 12 14  1  0  0  0  0
 12 16  2  0  0  0  0
 13 17  1  0  0  0  0
 14 18  2  0  0  0  0
 14 19  1  0  0  0  0
 15 21  2  0  0  0  0
 16 21  1  0  0  0  0
 18 22  1  0  0  0  0
 19 23  2  0  0  0  0
 19 26  1  0  0  0  0
 20 24  1  0  0  0  0
 22 25  2  0  0  0  0
 23 25  1  0  0  0  0
 24 29  1  0  0  0  0
 27 28  1  0  0  0  0
 27 31  1  0  0  0  0
 27 33  2  0  0  0  0
 28 32  2  0  0  0  0
 30 37  1  0  0  0  0
 31 34  1  0  0  0  0
 31 35  2  0  0  0  0
 32 36  1  0  0  0  0
 33 38  1  0  0  0  0
 34 36  2  0  0  0  0
 35 39  1  0  0  0  0
 38 39  2  0  0  0  0
 40 41  1  0  0  0  0
 42 43  1  0  0  0  0
M  END
> <Value>
6.399996913372259

> <Relation>
=

> <SourceURI>
mol:CHEMBL2002682

$$$$

Generated by Molecular Materials Informatics

 22 24  0  0  0  0  0  0  0  0999 V2000
   -1.8511   -0.2250    0.0000 N   0  0  0  0  0  0  0  0  0  0  0  0
    0.7469   -7.7250    0.0000 N   0  0  0  0  0  0  0  0  0  0  0  0
    0.7469    2.7750    0.0000 N   0  0  0  0  0  0  0  0  0  0  0  0
    0.7469   -3.2250    0.0000 C   0  0  0  0  0  0  0  0  0  0  0  0
   -0.5520   -0.9750    0.0000 C   0  0  0  0  0  0  0  0  0  0  0  0
    0.7469   -0.2250    0.0000 C   0  0  0  0  0  0  0  0  0  0  0  0
    0.7469   -4.7250    0.0000 C   0  0  0  0  0  0  0  0  0  0  0  0
   -0.5520   -2.4750    0.0000 C   0  0  0  0  0  0  0  0  0  0  0  0
    2.0460   -2.4750    0.0000 C   0  0  0  0  0  0  0  0  0  0  0  0
    2.0460   -0.9750    0.0000 C   0  0  0  0  0  0  0  0  0  0  0  0
   -0.5520   -5.4750    0.0000 C   0  0  0  0  0  0  0  0  0  0  0  0
    2.0460   -5.4750    0.0000 C   0  0  0  0  0  0  0  0  0  0  0  0
    0.7469    1.2750    0.0000 C   0  0  0  0  0  0  0  0  0  0  0  0
   -3.1502   -0.9750    0.0000 C   0  0  0  0  0  0  0  0  0  0  0  0
   -4.4493   -0.2250    0.0000 C   0  0  0  0  0  0  0  0  0  0  0  0
   -0.5520   -6.9750    0.0000 C   0  0  0  0  0  0  0  0  0  0  0  0
    2.0460   -6.9750    0.0000 C   0  0  0  0  0  0  0  0  0  0  0  0
   -5.7482   -0.9750    0.0000 C   0  0  0  0  0  0  0  0  0  0  0  0
   -4.4493    1.2750    0.0000 C   0  0  0  0  0  0  0  0  0  0  0  0
   -7.0473   -0.2250    0.0000 C   0  0  0  0  0  0  0  0  0  0  0  0
   -5.7482    2.0250    0.0000 C   0  0  0  0  0  0  0  0  0  0  0  0
   -7.0473    1.2750    0.0000 C   0  0  0  0  0  0  0  0  0  0  0  0
  1  5  1  0  0  0  0
  1 14  1  0  0  0  0
  2 16  2  0  0  0  0
  2 17  1  0  0  0  0
  3 13  3  0  0  0  0
  4  7  1  0  0  0  0
  4  8  1  0  0  0  0
  4  9  2  0  0  0  0
  5  6  1  0  0  0  0
  5  8  2  0  0  0  0
  6 10  2  0  0  0  0
  6 13  1  0  0  0  0
  7 11  2  0  0  0  0
  7 12  1  0  0  0  0
  9 10  1  0  0  0  0
 11 16  1  0  0  0  0
 12 17  2  0  0  0  0
 14 15  1  0  0  0  0
 15 18  2  0  0  0  0
 15 19  1  0  0  0  0
 18 20  1  0  0  0  0
 19 21  2  0  0  0  0
 20 22  2  0  0  0  0
 21 22  1  0  0  0  0
M  END
> <Value>
5.300000202445418

> <Relation>
<

> <SourceURI>
mol:CHEMBL1967992

$$$$

Generated by Molecular Materials Informatics

 24 26  0  0  0  0  0  0  0  0999 V2000
    5.2086    1.2384    0.0000 S   0  0  0  0  0  0  0  0  0  0  0  0
    3.9949    3.6201    0.0000 O   0  0  0  0  0  0  0  0  0  0  0  0
    1.0844   -8.4101    0.0000 O   0  0  0  0  0  0  0  0  0  0  0  0
    2.7815    1.2384    0.0000 N   0  0  0  0  0  0  0  0  0  0  0  0
    5.0166   -2.7721    0.0000 N   0  0  0  0  0  0  0  0  0  0  0  0
    7.3900   -3.8289    0.0000 N   0  0  0  0  0  0  0  0  0  0  0  0
    5.2882   -5.3559    0.0000 N   0  0  0  0  0  0  0  0  0  0  0  0
    4.7449   -0.1883    0.0000 C   0  0  0  0  0  0  0  0  0  0  0  0
    3.2449   -0.1883    0.0000 C   0  0  0  0  0  0  0  0  0  0  0  0
    5.6266   -1.4018    0.0000 C   0  0  0  0  0  0  0  0  0  0  0  0
    3.9949    2.1201    0.0000 C   0  0  0  0  0  0  0  0  0  0  0  0
    5.8982   -3.9856    0.0000 C   0  0  0  0  0  0  0  0  0  0  0  0
    7.1184   -1.2450    0.0000 C   0  0  0  0  0  0  0  0  0  0  0  0
    1.3549    1.7019    0.0000 C   0  0  0  0  0  0  0  0  0  0  0  0
    2.3633   -1.4018    0.0000 C   0  0  0  0  0  0  0  0  0  0  0  0
    8.0000   -2.4585    0.0000 C   0  0  0  0  0  0  0  0  0  0  0  0
    3.7964   -5.5127    0.0000 C   0  0  0  0  0  0  0  0  0  0  0  0
    3.1862   -6.8830    0.0000 C   0  0  0  0  0  0  0  0  0  0  0  0
    1.6944   -7.0398    0.0000 C   0  0  0  0  0  0  0  0  0  0  0  0
    2.9146   -4.2992    0.0000 C   0  0  0  0  0  0  0  0  0  0  0  0
    1.0429    3.1692    0.0000 C   0  0  0  0  0  0  0  0  0  0  0  0
    0.8128   -5.8263    0.0000 C   0  0  0  0  0  0  0  0  0  0  0  0
    1.4229   -4.4559    0.0000 C   0  0  0  0  0  0  0  0  0  0  0  0
    1.9660   -9.6238    0.0000 C   0  0  0  0  0  0  0  0  0  0  0  0
  1  8  1  0  0  0  0
  1 11  1  0  0  0  0
  2 11  2  0  0  0  0
  3 19  1  0  0  0  0
  3 24  1  0  0  0  0
  4  9  1  0  0  0  0
  4 11  1  0  0  0  0
  4 14  1  0  0  0  0
  5 10  1  0  0  0  0
  5 12  2  0  0  0  0
  6 12  1  0  0  0  0
  6 16  2  0  0  0  0
  7 12  1  0  0  0  0
  7 17  1  0  0  0  0
  8  9  2  0  0  0  0
  8 10  1  0  0  0  0
  9 15  1  0  0  0  0
 10 13  2  0  0  0  0
 13 16  1  0  0  0  0
 14 21  1  0  0  0  0
 17 18  1  0  0  0  0
 17 20  2  0  0  0  0
 18 19  2  0  0  0  0
 19 22  1  0  0  0  0
 20 23  1  0  0  0  0
 22 23  2  0  0  0  0
M  END
> <Value>
6.299997602857746

> <Relation>
=

> <SourceURI>
mol:CHEMBL1986263

$$$$

Generated by Molecular Materials Informatics

 15 17  0  0  0  0  0  0  0  0999 V2000
   -2.1692    2.7823    0.0000 Cl  0  0  0  0  0  0  0  0  0  0  0  0
    2.0554   -1.4436    0.0000 O   0  0  0  0  0  0  0  0  0  0  0  0
    5.1998   -2.3003    0.0000 O   0  0  0  0  0  0  0  0  0  0  0  0
    3.8093    1.9794    0.0000 N   0  0  0  0  0  0  0  0  0  0  0  0
    5.7400    0.2410    0.0000 N   0  0  0  0  0  0  0  0  0  0  0  0
    2.8054    0.8646    0.0000 C   0  0  0  0  0  0  0  0  0  0  0  0
    1.3054    0.8646    0.0000 C   0  0  0  0  0  0  0  0  0  0  0  0
    3.2691   -0.5619    0.0000 C   0  0  0  0  0  0  0  0  0  0  0  0
    0.8419   -0.5619    0.0000 C   0  0  0  0  0  0  0  0  0  0  0  0
    4.7364   -0.8738    0.0000 C   0  0  0  0  0  0  0  0  0  0  0  0
    0.3017    1.9794    0.0000 C   0  0  0  0  0  0  0  0  0  0  0  0
   -0.6254   -0.8738    0.0000 C   0  0  0  0  0  0  0  0  0  0  0  0
   -1.1656    1.6676    0.0000 C   0  0  0  0  0  0  0  0  0  0  0  0
    5.2764    1.6676    0.0000 C   0  0  0  0  0  0  0  0  0  0  0  0
   -1.6290    0.2410    0.0000 C   0  0  0  0  0  0  0  0  0  0  0  0
  1 13  1  0  0  0  0
  2  8  1  0  0  0  0
  2  9  1  0  0  0  0
  3 10  2  0  0  0  0
  4  6  1  0  0  0  0
  4 14  2  0  0  0  0
  5 10  1  0  0  0  0
  5 14  1  0  0  0  0
  6  7  1  0  0  0  0
  6  8  2  0  0  0  0
  7  9  1  0  0  0  0
  7 11  2  0  0  0  0
  8 10  1  0  0  0  0
  9 12  2  0  0  0  0
 11 13  1  0  0  0  0
 12 15  1  0  0  0  0
 13 15  2  0  0  0  0
M  END
> <Value>
5.899998417198648

> <Relation>
<

> <SourceURI>
mol:CHEMBL1992323

$$$$

Generated by Molecular Materials Informatics

 24 27  0  0  0  0  0  0  0  0999 V2000
   -1.1081   -5.2389    0.0000 O   0  0  0  0  0  0  0  0  0  0  0  0
    1.6770    1.2042    0.0000 N   0  0  0  0  0  0  0  0  0  0  0  0
    4.0509    0.6997    0.0000 N   0  0  0  0  0  0  0  0  0  0  0  0
    0.1770    3.8023    0.0000 N   0  0  0  0  0  0  0  0  0  0  0  0
   -2.0402    2.1915    0.0000 N   0  0  0  0  0  0  0  0  0  0  0  0
    0.6303   -3.3083    0.0000 N   0  0  0  0  0  0  0  0  0  0  0  0
   -4.7640   -3.6952    0.0000 N   0  0  0  0  0  0  0  0  0  0  0  0
    2.6806    0.0895    0.0000 C   0  0  0  0  0  0  0  0  0  0  0  0
    0.1770    1.2042    0.0000 C   0  0  0  0  0  0  0  0  0  0  0  0
    2.4270    2.5033    0.0000 C   0  0  0  0  0  0  0  0  0  0  0  0
    2.3688   -1.3776    0.0000 C   0  0  0  0  0  0  0  0  0  0  0  0
   -0.5730    2.5033    0.0000 C   0  0  0  0  0  0  0  0  0  0  0  0
    3.8942    2.1915    0.0000 C   0  0  0  0  0  0  0  0  0  0  0  0
    1.6770    3.8023    0.0000 C   0  0  0  0  0  0  0  0  0  0  0  0
    3.4835   -2.3814    0.0000 C   0  0  0  0  0  0  0  0  0  0  0  0
   -0.8266    0.0895    0.0000 C   0  0  0  0  0  0  0  0  0  0  0  0
    0.9423   -1.8412    0.0000 C   0  0  0  0  0  0  0  0  0  0  0  0
   -2.1970    0.6997    0.0000 C   0  0  0  0  0  0  0  0  0  0  0  0
    3.1717   -3.8484    0.0000 C   0  0  0  0  0  0  0  0  0  0  0  0
    1.7450   -4.3121    0.0000 C   0  0  0  0  0  0  0  0  0  0  0  0
   -0.7963   -3.7719    0.0000 C   0  0  0  0  0  0  0  0  0  0  0  0
    4.9100   -1.9177    0.0000 C   0  0  0  0  0  0  0  0  0  0  0  0
   -1.9110   -2.7681    0.0000 C   0  0  0  0  0  0  0  0  0  0  0  0
   -3.3375   -3.2317    0.0000 C   0  0  0  0  0  0  0  0  0  0  0  0
  1 21  2  0  0  0  0
  2  8  1  0  0  0  0
  2  9  1  0  0  0  0
  2 10  1  0  0  0  0
  3  8  2  0  0  0  0
  3 13  1  0  0  0  0
  4 12  1  0  0  0  0
  4 14  2  0  0  0  0
  5 12  1  0  0  0  0
  5 18  1  0  0  0  0
  6 17  1  0  0  0  0
  6 20  1  0  0  0  0
  6 21  1  0  0  0  0
  7 24  3  0  0  0  0
  8 11  1  0  0  0  0
  9 12  2  0  0  0  0
  9 16  1  0  0  0  0
 10 13  2  0  0  0  0
 10 14  1  0  0  0  0
 11 15  1  0  0  0  0
 11 17  1  0  0  0  0
 15 19  1  0  0  0  0
 15 22  1  0  0  0  0
 16 18  2  0  0  0  0
 19 20  1  0  0  0  0
 21 23  1  0  0  0  0
 23 24  1  0  0  0  0
M  END
> <Value>
5.300000202445418

> <Relation>
<

> <SourceURI>
mol:CHEMBL1966175

$$$$

Generated by Molecular Materials Informatics

 33 37  0  0  0  0  0  0  0  0999 V2000
   -6.1930    0.0038    0.0000 F   0  0  0  0  0  0  0  0  0  0  0  0
   -7.0345   -8.1637    0.0000 O   0  0  0  0  0  0  0  0  0  0  0  0
    2.1152   -0.7462    0.0000 N   0  0  0  0  0  0  0  0  0  0  0  0
    0.6886    1.2172    0.0000 N   0  0  0  0  0  0  0  0  0  0  0  0
    4.7134    0.7538    0.0000 N   0  0  0  0  0  0  0  0  0  0  0  0
   -1.2421   -2.9482    0.0000 N   0  0  0  0  0  0  0  0  0  0  0  0
   -0.7019   -5.4895    0.0000 N   0  0  0  0  0  0  0  0  0  0  0  0
   -3.1728   -4.6868    0.0000 N   0  0  0  0  0  0  0  0  0  0  0  0
    0.6886   -1.2099    0.0000 C   0  0  0  0  0  0  0  0  0  0  0  0
    2.1152    0.7538    0.0000 C   0  0  0  0  0  0  0  0  0  0  0  0
   -0.1930    0.0038    0.0000 C   0  0  0  0  0  0  0  0  0  0  0  0
    0.2252   -2.6364    0.0000 C   0  0  0  0  0  0  0  0  0  0  0  0
    3.4143    1.5038    0.0000 C   0  0  0  0  0  0  0  0  0  0  0  0
   -1.6930    0.0038    0.0000 C   0  0  0  0  0  0  0  0  0  0  0  0
    3.4143   -1.4962    0.0000 C   0  0  0  0  0  0  0  0  0  0  0  0
    3.4143    3.0038    0.0000 C   0  0  0  0  0  0  0  0  0  0  0  0
    1.2288   -3.7511    0.0000 C   0  0  0  0  0  0  0  0  0  0  0  0
    4.7134   -0.7462    0.0000 C   0  0  0  0  0  0  0  0  0  0  0  0
   -2.4430   -1.2953    0.0000 C   0  0  0  0  0  0  0  0  0  0  0  0
   -2.4430    1.3027    0.0000 C   0  0  0  0  0  0  0  0  0  0  0  0
   -1.7057   -4.3750    0.0000 C   0  0  0  0  0  0  0  0  0  0  0  0
    2.1152    3.7538    0.0000 C   0  0  0  0  0  0  0  0  0  0  0  0
    0.7652   -5.1777    0.0000 C   0  0  0  0  0  0  0  0  0  0  0  0
   -3.9430   -1.2953    0.0000 C   0  0  0  0  0  0  0  0  0  0  0  0
   -3.9430    1.3027    0.0000 C   0  0  0  0  0  0  0  0  0  0  0  0
    0.6152    3.7538    0.0000 C   0  0  0  0  0  0  0  0  0  0  0  0
    1.3652    5.0527    0.0000 C   0  0  0  0  0  0  0  0  0  0  0  0
   -4.6930    0.0038    0.0000 C   0  0  0  0  0  0  0  0  0  0  0  0
   -3.6365   -6.1133    0.0000 C   0  0  0  0  0  0  0  0  0  0  0  0
   -5.1036   -6.4251    0.0000 C   0  0  0  0  0  0  0  0  0  0  0  0
   -6.5708   -6.7371    0.0000 C   0  0  0  0  0  0  0  0  0  0  0  0
   -5.4156   -4.9580    0.0000 C   0  0  0  0  0  0  0  0  0  0  0  0
   -4.7917   -7.8924    0.0000 C   0  0  0  0  0  0  0  0  0  0  0  0
  1 28  1  0  0  0  0
  2 31  1  0  0  0  0
  3  9  1  0  0  0  0
  3 10  1  0  0  0  0
  3 15  1  0  0  0  0
  4 10  2  0  0  0  0
  4 11  1  0  0  0  0
  5 13  2  0  0  0  0
  5 18  1  0  0  0  0
  6 12  2  0  0  0  0
  6 21  1  0  0  0  0
  7 21  2  0  0  0  0
  7 23  1  0  0  0  0
  8 21  1  0  0  0  0
  8 29  1  0  0  0  0
  9 11  2  0  0  0  0
  9 12  1  0  0  0  0
 10 13  1  0  0  0  0
 11 14  1  0  0  0  0
 12 17  1  0  0  0  0
 13 16  1  0  0  0  0
 14 19  2  0  0  0  0
 14 20  1  0  0  0  0
 15 18  2  0  0  0  0
 16 22  1  0  0  0  0
 17 23  2  0  0  0  0
 19 24  1  0  0  0  0
 20 25  2  0  0  0  0
 22 26  1  0  0  0  0
 22 27  1  0  0  0  0
 24 28  2  0  0  0  0
 25 28  1  0  0  0  0
 26 27  1  0  0  0  0
 29 30  1  0  0  0  0
 30 31  1  0  0  0  0
 30 32  1  0  0  0  0
 30 33  1  0  0  0  0
M  END
> <Value>
5.899998417198648

> <Relation>
<

> <SourceURI>
mol:CHEMBL1991800

$$$$

Generated by Molecular Materials Informatics

 20 22  0  0  0  0  0  0  0  0999 V2000
   -3.2605    0.4878    0.0000 O   0  0  0  0  0  0  0  0  0  0  0  0
   -7.2708    0.2958    0.0000 O   0  5  0  0  0  0  0  0  0  0  0  0
   -5.7437    2.3978    0.0000 O   0  0  0  0  0  0  0  0  0  0  0  0
    6.6257   -1.4757    0.0000 O   0  0  0  0  0  0  0  0  0  0  0  0
    1.4295   -1.4757    0.0000 N   0  0  0  0  0  0  0  0  0  0  0  0
    0.0030    0.4878    0.0000 N   0  0  0  0  0  0  0  0  0  0  0  0
   -5.9005    0.9060    0.0000 N   0  3  0  0  0  0  0  0  0  0  0  0
    5.3266   -3.7257    0.0000 N   0  0  0  0  0  0  0  0  0  0  0  0
   -0.8786   -0.7257    0.0000 C   0  0  0  0  0  0  0  0  0  0  0  0
   -2.3786   -0.7257    0.0000 C   0  0  0  0  0  0  0  0  0  0  0  0
    1.4295    0.0243    0.0000 C   0  0  0  0  0  0  0  0  0  0  0  0
    0.0030   -1.9393    0.0000 C   0  0  0  0  0  0  0  0  0  0  0  0
   -4.6870    0.0243    0.0000 C   0  0  0  0  0  0  0  0  0  0  0  0
    2.7286   -2.2257    0.0000 C   0  0  0  0  0  0  0  0  0  0  0  0
   -3.2605   -1.9393    0.0000 C   0  0  0  0  0  0  0  0  0  0  0  0
    4.0277   -1.4757    0.0000 C   0  0  0  0  0  0  0  0  0  0  0  0
    2.7286    0.7743    0.0000 C   0  0  0  0  0  0  0  0  0  0  0  0
   -4.6870   -1.4757    0.0000 C   0  0  0  0  0  0  0  0  0  0  0  0
    4.0277    0.0243    0.0000 C   0  0  0  0  0  0  0  0  0  0  0  0
    5.3266   -2.2257    0.0000 C   0  0  0  0  0  0  0  0  0  0  0  0
  1 10  1  0  0  0  0
  1 13  1  0  0  0  0
  2  7  1  0  0  0  0
  3  7  2  0  0  0  0
  4 20  2  0  0  0  0
  5 11  1  0  0  0  0
  5 12  1  0  0  0  0
  5 14  1  0  0  0  0
  6  9  1  0  0  0  0
  6 11  2  0  0  0  0
  7 13  1  0  0  0  0
  8 20  1  0  0  0  0
  9 10  1  0  0  0  0
  9 12  2  0  0  0  0
 10 15  2  0  0  0  0
 11 17  1  0  0  0  0
 13 18  2  0  0  0  0
 14 16  2  0  0  0  0
 15 18  1  0  0  0  0
 16 19  1  0  0  0  0
 16 20  1  0  0  0  0
 17 19  2  0  0  0  0
M  CHG  2   2  -1   7   1
M  END
> <Value>
6.599997654072044

> <Relation>
=

> <SourceURI>
mol:CHEMBL1973359

$$$$

Generated by Molecular Materials Informatics

 24 26  0  0  0  0  0  0  0  0999 V2000
   -5.9023   -2.4461    0.0000 S   0  0  0  0  0  0  0  0  0  0  0  0
    7.1590   -0.8063    0.0000 O   0  0  0  0  0  0  0  0  0  0  0  0
   -1.9340   -3.0562    0.0000 N   0  0  0  0  0  0  0  0  0  0  0  0
    0.6641   -3.0562    0.0000 N   0  0  0  0  0  0  0  0  0  0  0  0
   -0.6350   -0.8063    0.0000 N   0  0  0  0  0  0  0  0  0  0  0  0
    3.2620   -3.0562    0.0000 N   0  0  0  0  0  0  0  0  0  0  0  0
    1.9630   -0.8063    0.0000 N   0  0  0  0  0  0  0  0  0  0  0  0
   -3.2329   -2.3063    0.0000 C   0  0  0  0  0  0  0  0  0  0  0  0
   -4.5320   -3.0562    0.0000 C   0  0  0  0  0  0  0  0  0  0  0  0
   -0.6350   -2.3063    0.0000 C   0  0  0  0  0  0  0  0  0  0  0  0
   -3.2329   -0.8063    0.0000 C   0  0  0  0  0  0  0  0  0  0  0  0
   -4.6887   -4.5480    0.0000 C   0  0  0  0  0  0  0  0  0  0  0  0
    5.8602   -3.0562    0.0000 C   0  0  0  0  0  0  0  0  0  0  0  0
    1.9630   -2.3063    0.0000 C   0  0  0  0  0  0  0  0  0  0  0  0
   -1.9340   -0.0563    0.0000 C   0  0  0  0  0  0  0  0  0  0  0  0
    7.1590   -2.3063    0.0000 C   0  0  0  0  0  0  0  0  0  0  0  0
    4.5611   -2.3063    0.0000 C   0  0  0  0  0  0  0  0  0  0  0  0
   -6.9059   -3.5608    0.0000 C   0  0  0  0  0  0  0  0  0  0  0  0
   -6.1559   -4.8598    0.0000 C   0  0  0  0  0  0  0  0  0  0  0  0
    5.8602   -4.5562    0.0000 C   0  0  0  0  0  0  0  0  0  0  0  0
    8.4581   -3.0562    0.0000 C   0  0  0  0  0  0  0  0  0  0  0  0
    7.1590   -5.3062    0.0000 C   0  0  0  0  0  0  0  0  0  0  0  0
    8.4581   -4.5562    0.0000 C   0  0  0  0  0  0  0  0  0  0  0  0
    8.4581   -0.0563    0.0000 C   0  0  0  0  0  0  0  0  0  0  0  0
  1  9  1  0  0  0  0
  1 18  1  0  0  0  0
  2 16  1  0  0  0  0
  2 24  1  0  0  0  0
  3  8  2  0  0  0  0
  3 10  1  0  0  0  0
  4 10  1  0  0  0  0
  4 14  1  0  0  0  0
  5 10  2  0  0  0  0
  5 15  1  0  0  0  0
  6 14  1  0  0  0  0
  6 17  1  0  0  0  0
  7 14  2  0  0  0  0
  8  9  1  0  0  0  0
  8 11  1  0  0  0  0
  9 12  2  0  0  0  0
 11 15  2  0  0  0  0
 12 19  1  0  0  0  0
 13 16  1  0  0  0  0
 13 17  1  0  0  0  0
 13 20  2  0  0  0  0
 16 21  2  0  0  0  0
 18 19  2  0  0  0  0
 20 22  1  0  0  0  0
 21 23  1  0  0  0  0
 22 23  2  0  0  0  0
M  END
> <Value>
5.300000202445418

> <Relation>
<

> <SourceURI>
mol:CHEMBL1997197

$$$$

Generated by Molecular Materials Informatics

 54 55  0  0  0  0  0  0  0  0999 V2000
   -0.4870    3.7312    0.0000 O   0  0  0  0  0  0  0  0  0  0  0  0
   11.2041   -0.0187    0.0000 O   0  0  0  0  0  0  0  0  0  0  0  0
   -1.7861    1.4813    0.0000 N   0  0  0  0  0  0  0  0  0  0  0  0
   12.5030    2.2312    0.0000 N   0  0  0  0  0  0  0  0  0  0  0  0
   18.9981    1.4813    0.0000 N   0  0  0  0  0  0  0  0  0  0  0  0
   -8.2810    2.2312    0.0000 N   0  0  0  0  0  0  0  0  0  0  0  0
   -5.6830    6.7311    0.0000 N   0  0  0  0  0  0  0  0  0  0  0  0
   16.3999   -3.0186    0.0000 N   0  0  0  0  0  0  0  0  0  0  0  0
   20.2969    2.2312    0.0000 N   0  0  0  0  0  0  0  0  0  0  0  0
   -9.5800    1.4813    0.0000 N   0  0  0  0  0  0  0  0  0  0  0  0
   -5.6830    8.2311    0.0000 N   0  0  0  0  0  0  0  0  0  0  0  0
   16.3999   -4.5186    0.0000 N   0  0  0  0  0  0  0  0  0  0  0  0
    0.8120    1.4813    0.0000 N   0  0  0  0  0  0  0  0  0  0  0  0
    9.9051    2.2312    0.0000 N   0  0  0  0  0  0  0  0  0  0  0  0
   22.8950    2.2312    0.0000 N   0  0  0  0  0  0  0  0  0  0  0  0
  -12.1779    1.4813    0.0000 N   0  0  0  0  0  0  0  0  0  0  0  0
   -8.2810    8.2311    0.0000 N   0  0  0  0  0  0  0  0  0  0  0  0
   18.9981   -4.5186    0.0000 N   0  0  0  0  0  0  0  0  0  0  0  0
   21.5960   -0.0187    0.0000 N   0  0  0  0  0  0  0  0  0  0  0  0
  -10.8791    3.7312    0.0000 N   0  0  0  0  0  0  0  0  0  0  0  0
   -6.9819   10.4810    0.0000 N   0  0  0  0  0  0  0  0  0  0  0  0
   17.6990   -6.7685    0.0000 N   0  0  0  0  0  0  0  0  0  0  0  0
   16.3999    1.4813    0.0000 C   0  0  0  0  0  0  0  0  0  0  0  0
   -5.6830    2.2312    0.0000 C   0  0  0  0  0  0  0  0  0  0  0  0
   -4.3840    4.4812    0.0000 C   0  0  0  0  0  0  0  0  0  0  0  0
   15.1011   -0.7687    0.0000 C   0  0  0  0  0  0  0  0  0  0  0  0
   -3.0849    2.2312    0.0000 C   0  0  0  0  0  0  0  0  0  0  0  0
   13.8020    1.4813    0.0000 C   0  0  0  0  0  0  0  0  0  0  0  0
   16.3999   -0.0187    0.0000 C   0  0  0  0  0  0  0  0  0  0  0  0
   -5.6830    3.7312    0.0000 C   0  0  0  0  0  0  0  0  0  0  0  0
   15.1011    2.2312    0.0000 C   0  0  0  0  0  0  0  0  0  0  0  0
   -4.3840    1.4813    0.0000 C   0  0  0  0  0  0  0  0  0  0  0  0
   -3.0849    3.7312    0.0000 C   0  0  0  0  0  0  0  0  0  0  0  0
   13.8020   -0.0187    0.0000 C   0  0  0  0  0  0  0  0  0  0  0  0
   17.6990    2.2312    0.0000 C   0  0  0  0  0  0  0  0  0  0  0  0
   -6.9819    1.4813    0.0000 C   0  0  0  0  0  0  0  0  0  0  0  0
   -4.3840    5.9811    0.0000 C   0  0  0  0  0  0  0  0  0  0  0  0
   15.1011   -2.2686    0.0000 C   0  0  0  0  0  0  0  0  0  0  0  0
   -0.4870    2.2312    0.0000 C   0  0  0  0  0  0  0  0  0  0  0  0
   11.2041    1.4813    0.0000 C   0  0  0  0  0  0  0  0  0  0  0  0
   17.6990    3.7312    0.0000 C   0  0  0  0  0  0  0  0  0  0  0  0
   -6.9819   -0.0187    0.0000 C   0  0  0  0  0  0  0  0  0  0  0  0
   -3.0849    6.7311    0.0000 C   0  0  0  0  0  0  0  0  0  0  0  0
   13.8020   -3.0186    0.0000 C   0  0  0  0  0  0  0  0  0  0  0  0
   21.5960    1.4813    0.0000 C   0  0  0  0  0  0  0  0  0  0  0  0
  -10.8791    2.2312    0.0000 C   0  0  0  0  0  0  0  0  0  0  0  0
   -6.9819    8.9810    0.0000 C   0  0  0  0  0  0  0  0  0  0  0  0
   17.6990   -5.2685    0.0000 C   0  0  0  0  0  0  0  0  0  0  0  0
    2.1111    2.2312    0.0000 C   0  0  0  0  0  0  0  0  0  0  0  0
    8.6060    1.4813    0.0000 C   0  0  0  0  0  0  0  0  0  0  0  0
    3.4100    1.4813    0.0000 C   0  0  0  0  0  0  0  0  0  0  0  0
    7.3069    2.2312    0.0000 C   0  0  0  0  0  0  0  0  0  0  0  0
    4.7090    2.2312    0.0000 C   0  0  0  0  0  0  0  0  0  0  0  0
    6.0081    1.4813    0.0000 C   0  0  0  0  0  0  0  0  0  0  0  0
  1 39  2  0  0  0  0
  2 40  2  0  0  0  0
  3 27  1  0  0  0  0
  3 39  1  0  0  0  0
  4 28  1  0  0  0  0
  4 40  1  0  0  0  0
  5  9  1  0  0  0  0
  5 35  2  0  0  0  0
  6 10  1  0  0  0  0
  6 36  2  0  0  0  0
  7 11  1  0  0  0  0
  7 37  2  0  0  0  0
  8 12  1  0  0  0  0
  8 38  2  0  0  0  0
  9 45  1  0  0  0  0
 10 46  1  0  0  0  0
 11 47  1  0  0  0  0
 12 48  1  0  0  0  0
 13 39  1  0  0  0  0
 13 49  1  0  0  0  0
 14 40  1  0  0  0  0
 14 50  1  0  0  0  0
 15 45  2  0  0  0  0
 16 46  2  0  0  0  0
 17 47  2  0  0  0  0
 18 48  2  0  0  0  0
 19 45  1  0  0  0  0
 20 46  1  0  0  0  0
 21 47  1  0  0  0  0
 22 48  1  0  0  0  0
 23 29  2  0  0  0  0
 23 31  1  0  0  0  0
 23 35  1  0  0  0  0
 24 30  2  0  0  0  0
 24 32  1  0  0  0  0
 24 36  1  0  0  0  0
 25 30  1  0  0  0  0
 25 33  2  0  0  0  0
 25 37  1  0  0  0  0
 26 29  1  0  0  0  0
 26 34  2  0  0  0  0
 26 38  1  0  0  0  0
 27 32  2  0  0  0  0
 27 33  1  0  0  0  0
 28 31  2  0  0  0  0
 28 34  1  0  0  0  0
 35 41  1  0  0  0  0
 36 42  1  0  0  0  0
 37 43  1  0  0  0  0
 38 44  1  0  0  0  0
 49 51  1  0  0  0  0
 50 52  1  0  0  0  0
 51 53  1  0  0  0  0
 52 54  1  0  0  0  0
 53 54  1  0  0  0  0
M  END
> <Value>
6.799998134593398

> <Relation>
=

> <SourceURI>
mol:CHEMBL1991728

$$$$

Generated by Molecular Materials Informatics

 22 25  0  0  0  0  0  0  0  0999 V2000
    0.3907   -3.3857    0.0000 C   0  0  0  0  0  0  0  0  0  0  0  0
    0.3886   -4.8899    0.0000 C   0  0  0  0  0  0  0  0  0  0  0  0
    1.6882   -5.6404    0.0000 C   0  0  0  0  0  0  0  0  0  0  0  0
    1.6849   -2.6352    0.0000 C   0  0  0  0  0  0  0  0  0  0  0  0
    2.9854   -3.3790    0.0000 C   0  0  0  0  0  0  0  0  0  0  0  0
    2.9860   -4.8815    0.0000 C   0  0  0  0  0  0  0  0  0  0  0  0
    5.2979   -4.1295    0.0000 N   0  0  0  0  0  0  0  0  0  0  0  0
    4.4143   -2.9144    0.0000 C   0  0  0  0  0  0  0  0  0  0  0  0
   -0.9011   -2.6281    0.0000 C   0  0  0  0  0  0  0  0  0  0  0  0
   -1.0582   -1.1366    0.0000 N   0  0  0  0  0  0  0  0  0  0  0  0
   -2.2709   -3.2386    0.0000 C   0  0  0  0  0  0  0  0  0  0  0  0
   -3.2750   -2.1243    0.0000 S   0  0  0  0  0  0  0  0  0  0  0  0
   -2.5274   -0.8239    0.0000 C   0  0  0  0  0  0  0  0  0  0  0  0
   -2.2578    1.7600    0.0000 C   0  0  0  0  0  0  0  0  0  0  0  0
   -3.0294    3.0469    0.0000 C   0  0  0  0  0  0  0  0  0  0  0  0
   -2.2972    4.3507    0.0000 C   0  0  0  0  0  0  0  0  0  0  0  0
   -3.0681    5.6358    0.0000 C   0  0  0  0  0  0  0  0  0  0  0  0
   -4.5692    5.6109    0.0000 C   0  0  0  0  0  0  0  0  0  0  0  0
   -5.2966    4.2902    0.0000 C   0  0  0  0  0  0  0  0  0  0  0  0
   -4.5216    3.0108    0.0000 C   0  0  0  0  0  0  0  0  0  0  0  0
    4.4138   -5.3411    0.0000 N   0  0  0  0  0  0  0  0  0  0  0  0
   -3.1387    0.5459    0.0000 N   0  0  0  0  0  0  0  0  0  0  0  0
  1  2  2  0  0  0  0
  2  3  1  0  0  0  0
  3  6  2  0  0  0  0
  5  4  2  0  0  0  0
  4  1  1  0  0  0  0
  5  6  1  0  0  0  0
  7  8  2  0  0  0  0
  8  5  1  0  0  0  0
  9 10  1  0  0  0  0
 10 13  2  0  0  0  0
 12 11  1  0  0  0  0
 11  9  2  0  0  0  0
  1  9  1  0  0  0  0
 12 13  1  0  0  0  0
 14 15  1  0  0  0  0
 15 16  2  0  0  0  0
 16 17  1  0  0  0  0
 17 18  2  0  0  0  0
 18 19  1  0  0  0  0
 19 20  2  0  0  0  0
 20 15  1  0  0  0  0
  6 21  1  0  0  0  0
  7 21  1  0  0  0  0
 13 22  1  0  0  0  0
 14 22  1  0  0  0  0
M  END
> <Value>
5.899998417198648

> <Relation>
<

> <SourceURI>
mol:CHEMBL1682546

$$$$

Generated by Molecular Materials Informatics

 37 40  0  0  0  0  0  0  0  0999 V2000
    0.5738   -5.2399    0.0000 O   0  0  0  0  0  0  0  0  0  0  0  0
   -7.9861   -0.2722    0.0000 O   0  0  0  0  0  0  0  0  0  0  0  0
   -3.3945   -3.1298    0.0000 N   0  0  0  0  0  0  0  0  0  0  0  0
   -4.3981   -4.2445    0.0000 N   0  0  0  0  0  0  0  0  0  0  0  0
   -0.7251   -2.9900    0.0000 N   0  0  0  0  0  0  0  0  0  0  0  0
    1.8729   -2.9900    0.0000 N   0  0  0  0  0  0  0  0  0  0  0  0
   -7.1832    2.1989    0.0000 N   0  0  0  0  0  0  0  0  0  0  0  0
  -10.3483    4.5931    0.0000 N   0  0  0  0  0  0  0  0  0  0  0  0
   -2.0242   -3.7399    0.0000 C   0  0  0  0  0  0  0  0  0  0  0  0
   -3.6481   -5.5436    0.0000 C   0  0  0  0  0  0  0  0  0  0  0  0
   -3.7063   -1.6627    0.0000 C   0  0  0  0  0  0  0  0  0  0  0  0
   -2.1809   -5.2317    0.0000 C   0  0  0  0  0  0  0  0  0  0  0  0
   -4.2583   -6.9139    0.0000 C   0  0  0  0  0  0  0  0  0  0  0  0
   -5.1329   -1.1991    0.0000 C   0  0  0  0  0  0  0  0  0  0  0  0
   -5.4448    0.2680    0.0000 C   0  0  0  0  0  0  0  0  0  0  0  0
   -2.5916   -0.6589    0.0000 C   0  0  0  0  0  0  0  0  0  0  0  0
    0.5738   -3.7399    0.0000 C   0  0  0  0  0  0  0  0  0  0  0  0
    1.8729   -1.4900    0.0000 C   0  0  0  0  0  0  0  0  0  0  0  0
    3.1720   -0.7400    0.0000 C   0  0  0  0  0  0  0  0  0  0  0  0
   -6.8714    0.7316    0.0000 C   0  0  0  0  0  0  0  0  0  0  0  0
   -4.3301    1.2718    0.0000 C   0  0  0  0  0  0  0  0  0  0  0  0
   -2.9034    0.8082    0.0000 C   0  0  0  0  0  0  0  0  0  0  0  0
    3.1720    0.7600    0.0000 C   0  0  0  0  0  0  0  0  0  0  0  0
   -4.8683   -8.2843    0.0000 C   0  0  0  0  0  0  0  0  0  0  0  0
   -2.8880   -7.5239    0.0000 C   0  0  0  0  0  0  0  0  0  0  0  0
   -5.6287   -6.3037    0.0000 C   0  0  0  0  0  0  0  0  0  0  0  0
    0.5738   -0.7400    0.0000 C   0  0  0  0  0  0  0  0  0  0  0  0
    4.4709   -1.4900    0.0000 C   0  0  0  0  0  0  0  0  0  0  0  0
    1.8729    1.5100    0.0000 C   0  0  0  0  0  0  0  0  0  0  0  0
    4.4709    1.5100    0.0000 C   0  0  0  0  0  0  0  0  0  0  0  0
    0.5738    0.7600    0.0000 C   0  0  0  0  0  0  0  0  0  0  0  0
    5.7700   -0.7400    0.0000 C   0  0  0  0  0  0  0  0  0  0  0  0
    5.7700    0.7600    0.0000 C   0  0  0  0  0  0  0  0  0  0  0  0
   -8.6097    2.6624    0.0000 C   0  0  0  0  0  0  0  0  0  0  0  0
   -6.0685    3.2025    0.0000 C   0  0  0  0  0  0  0  0  0  0  0  0
   -8.9217    4.1296    0.0000 C   0  0  0  0  0  0  0  0  0  0  0  0
   -4.6419    2.7389    0.0000 C   0  0  0  0  0  0  0  0  0  0  0  0
  1 17  2  0  0  0  0
  2 20  2  0  0  0  0
  3  4  1  0  0  0  0
  3  9  1  0  0  0  0
  3 11  1  0  0  0  0
  4 10  2  0  0  0  0
  5  9  1  0  0  0  0
  5 17  1  0  0  0  0
  6 17  1  0  0  0  0
  6 18  1  0  0  0  0
  7 20  1  0  0  0  0
  7 34  1  0  0  0  0
  7 35  1  0  0  0  0
  8 36  1  0  0  0  0
  9 12  2  0  0  0  0
 10 12  1  0  0  0  0
 10 13  1  0  0  0  0
 11 14  2  0  0  0  0
 11 16  1  0  0  0  0
 13 24  1  0  0  0  0
 13 25  1  0  0  0  0
 13 26  1  0  0  0  0
 14 15  1  0  0  0  0
 15 20  1  0  0  0  0
 15 21  2  0  0  0  0
 16 22  2  0  0  0  0
 18 19  1  0  0  0  0
 18 27  2  0  0  0  0
 19 23  1  0  0  0  0
 19 28  2  0  0  0  0
 21 22  1  0  0  0  0
 23 29  1  0  0  0  0
 23 30  2  0  0  0  0
 27 31  1  0  0  0  0
 28 32  1  0  0  0  0
 29 31  2  0  0  0  0
 30 33  1  0  0  0  0
 32 33  2  0  0  0  0
 34 36  1  0  0  0  0
 35 37  1  0  0  0  0
M  END
> <Value>
5.300000202445418

> <Relation>
=

> <SourceURI>
mol:CHEMBL2004637

$$$$

Generated by Molecular Materials Informatics

 24 27  0  0  0  0  0  0  0  0999 V2000
   -0.0893   -1.4524    0.0000 S   0  0  0  0  0  0  0  0  0  0  0  0
    3.0423    1.0602    0.0000 O   0  0  0  0  0  0  0  0  0  0  0  0
   -2.9424   -1.4524    0.0000 N   0  0  0  0  0  0  0  0  0  0  0  0
   -3.8241   -0.2389    0.0000 N   0  0  0  0  0  0  0  0  0  0  0  0
    3.0423   -1.5380    0.0000 N   0  0  0  0  0  0  0  0  0  0  0  0
    7.5423   -1.5380    0.0000 N   0  0  0  0  0  0  0  0  0  0  0  0
   -1.5159    0.5111    0.0000 C   0  0  0  0  0  0  0  0  0  0  0  0
   -1.5159   -0.9889    0.0000 C   0  0  0  0  0  0  0  0  0  0  0  0
   -2.9424    0.9745    0.0000 C   0  0  0  0  0  0  0  0  0  0  0  0
    0.7923   -0.2389    0.0000 C   0  0  0  0  0  0  0  0  0  0  0  0
   -0.0893    0.9745    0.0000 C   0  0  0  0  0  0  0  0  0  0  0  0
   -3.4061    2.4012    0.0000 C   0  0  0  0  0  0  0  0  0  0  0  0
    2.2923   -0.2389    0.0000 C   0  0  0  0  0  0  0  0  0  0  0  0
   -4.8732    2.7131    0.0000 C   0  0  0  0  0  0  0  0  0  0  0  0
   -2.4023    3.5160    0.0000 C   0  0  0  0  0  0  0  0  0  0  0  0
    4.5423   -1.5380    0.0000 C   0  0  0  0  0  0  0  0  0  0  0  0
   -5.3368    4.1396    0.0000 C   0  0  0  0  0  0  0  0  0  0  0  0
   -2.8659    4.9425    0.0000 C   0  0  0  0  0  0  0  0  0  0  0  0
    5.2923   -2.8369    0.0000 C   0  0  0  0  0  0  0  0  0  0  0  0
    5.2923   -0.2389    0.0000 C   0  0  0  0  0  0  0  0  0  0  0  0
   -4.3330    5.2543    0.0000 C   0  0  0  0  0  0  0  0  0  0  0  0
    6.7923   -2.8369    0.0000 C   0  0  0  0  0  0  0  0  0  0  0  0
    6.7923   -0.2389    0.0000 C   0  0  0  0  0  0  0  0  0  0  0  0
    9.0423   -1.5380    0.0000 C   0  0  0  0  0  0  0  0  0  0  0  0
  1  8  1  0  0  0  0
  1 10  1  0  0  0  0
  2 13  2  0  0  0  0
  3  4  1  0  0  0  0
  3  8  1  0  0  0  0
  4  9  2  0  0  0  0
  5 13  1  0  0  0  0
  5 16  1  0  0  0  0
  6 22  1  0  0  0  0
  6 23  1  0  0  0  0
  6 24  1  0  0  0  0
  7  8  2  0  0  0  0
  7  9  1  0  0  0  0
  7 11  1  0  0  0  0
  9 12  1  0  0  0  0
 10 11  2  0  0  0  0
 10 13  1  0  0  0  0
 12 14  2  0  0  0  0
 12 15  1  0  0  0  0
 14 17  1  0  0  0  0
 15 18  2  0  0  0  0
 16 19  1  0  0  0  0
 16 20  1  0  0  0  0
 17 21  2  0  0  0  0
 18 21  1  0  0  0  0
 19 22  1  0  0  0  0
 20 23  1  0  0  0  0
M  END
> <Value>
5.899998417198648

> <Relation>
<

> <SourceURI>
mol:CHEMBL1987007

$$$$

Generated by Molecular Materials Informatics

 14 15  0  0  0  0  0  0  0  0999 V2000
    0.9203   -0.8010    0.0000 S   0  0  0  0  0  0  0  0  0  0  0  0
    4.0521    1.7116    0.0000 O   0  0  0  0  0  0  0  0  0  0  0  0
   -1.9329   -0.8010    0.0000 N   0  0  0  0  0  0  0  0  0  0  0  0
   -2.8146    0.4125    0.0000 N   0  0  0  0  0  0  0  0  0  0  0  0
    1.3840    3.0528    0.0000 N   0  0  0  0  0  0  0  0  0  0  0  0
    4.0521   -0.8866    0.0000 N   0  0  0  0  0  0  0  0  0  0  0  0
   -0.5063    1.1625    0.0000 C   0  0  0  0  0  0  0  0  0  0  0  0
   -0.5063   -0.3375    0.0000 C   0  0  0  0  0  0  0  0  0  0  0  0
    0.9203    1.6260    0.0000 C   0  0  0  0  0  0  0  0  0  0  0  0
    1.8020    0.4125    0.0000 C   0  0  0  0  0  0  0  0  0  0  0  0
   -1.9329    1.6260    0.0000 C   0  0  0  0  0  0  0  0  0  0  0  0
    3.3020    0.4125    0.0000 C   0  0  0  0  0  0  0  0  0  0  0  0
   -2.3966    3.0528    0.0000 C   0  0  0  0  0  0  0  0  0  0  0  0
   -2.3966   -2.2278    0.0000 C   0  0  0  0  0  0  0  0  0  0  0  0
  1  8  1  0  0  0  0
  1 10  1  0  0  0  0
  2 12  2  0  0  0  0
  3  4  1  0  0  0  0
  3  8  1  0  0  0  0
  3 14  1  0  0  0  0
  4 11  2  0  0  0  0
  5  9  1  0  0  0  0
  6 12  1  0  0  0  0
  7  8  2  0  0  0  0
  7  9  1  0  0  0  0
  7 11  1  0  0  0  0
  9 10  2  0  0  0  0
 10 12  1  0  0  0  0
 11 13  1  0  0  0  0
M  END
> <Value>
4.200000030616179

> <Relation>
=

> <SourceURI>
mol:CHEMBL1996837

$$$$

Generated by Molecular Materials Informatics

 28 31  0  0  0  0  0  0  0  0999 V2000
    3.1830  -16.4134    0.0000 C   0  0  0  0  0  0  0  0  0  0  0  0
    4.4852  -15.6620    0.0000 N   0  0  0  0  0  0  0  0  0  0  0  0
    4.4801  -14.1520    0.0000 C   0  0  0  0  0  0  0  0  0  0  0  0
    3.1797  -13.4084    0.0000 C   0  0  0  0  0  0  0  0  0  0  0  0
    1.8835  -15.6627    0.0000 C   0  0  0  0  0  0  0  0  0  0  0  0
    1.8773  -14.1558    0.0000 C   0  0  0  0  0  0  0  0  0  0  0  0
    0.4421  -13.6961    0.0000 C   0  0  0  0  0  0  0  0  0  0  0  0
   -0.4387  -14.9189    0.0000 N   0  0  0  0  0  0  0  0  0  0  0  0
    0.4521  -16.1342    0.0000 N   0  0  0  0  0  0  0  0  0  0  0  0
   -0.0271  -12.2715    0.0000 N   0  0  0  0  0  0  0  0  0  0  0  0
    3.1750  -11.9164    0.0000 C   0  0  0  0  0  0  0  0  0  0  0  0
    4.4759  -11.1666    0.0000 C   0  0  0  0  0  0  0  0  0  0  0  0
    4.4754   -9.6682    0.0000 C   0  0  0  0  0  0  0  0  0  0  0  0
    3.1752   -8.9179    0.0000 C   0  0  0  0  0  0  0  0  0  0  0  0
    1.8725   -9.6770    0.0000 C   0  0  0  0  0  0  0  0  0  0  0  0
    1.8795  -11.1728    0.0000 C   0  0  0  0  0  0  0  0  0  0  0  0
    3.1719   -7.4181    0.0000 N   0  0  0  0  0  0  0  0  0  0  0  0
    4.4690   -6.6652    0.0000 C   0  0  0  0  0  0  0  0  0  0  0  0
    4.4658   -5.1654    0.0000 O   0  0  0  0  0  0  0  0  0  0  0  0
    5.7696   -7.4124    0.0000 N   0  0  0  0  0  0  0  0  0  0  0  0
    7.0668   -6.6597    0.0000 C   0  0  0  0  0  0  0  0  0  0  0  0
    8.3676   -7.4101    0.0000 C   0  0  0  0  0  0  0  0  0  0  0  0
    9.6640   -6.6586    0.0000 C   0  0  0  0  0  0  0  0  0  0  0  0
    9.6617   -5.1572    0.0000 C   0  0  0  0  0  0  0  0  0  0  0  0
    8.3519   -4.4105    0.0000 C   0  0  0  0  0  0  0  0  0  0  0  0
    7.0610   -5.1661    0.0000 C   0  0  0  0  0  0  0  0  0  0  0  0
    8.3436   -2.9105    0.0000 C   0  0  0  0  0  0  0  0  0  0  0  0
   -0.0054  -17.5625    0.0000 C   0  0  0  0  0  0  0  0  0  0  0  0
 13 14  2  0  0  0  0
 14 15  1  0  0  0  0
  3  4  2  0  0  0  0
 15 16  2  0  0  0  0
 16 11  1  0  0  0  0
  4 11  1  0  0  0  0
  6  7  1  0  0  0  0
 14 17  1  0  0  0  0
  7  8  2  0  0  0  0
 17 18  1  0  0  0  0
  8  9  1  0  0  0  0
 18 19  2  0  0  0  0
  9  5  1  0  0  0  0
 18 20  1  0  0  0  0
  4  6  1  0  0  0  0
 20 21  1  0  0  0  0
  7 10  1  0  0  0  0
 21 22  2  0  0  0  0
  5  6  2  0  0  0  0
 22 23  1  0  0  0  0
  1  2  2  0  0  0  0
 23 24  2  0  0  0  0
 11 12  2  0  0  0  0
 24 25  1  0  0  0  0
  5  1  1  0  0  0  0
 25 26  2  0  0  0  0
 26 21  1  0  0  0  0
 12 13  1  0  0  0  0
 25 27  1  0  0  0  0
  2  3  1  0  0  0  0
  9 28  1  0  0  0  0
M  END
> <Value>
5.899998417198648

> <Relation>
<

> <SourceURI>
mol:CHEMBL404367

$$$$

Generated by Molecular Materials Informatics

 30 32  0  0  0  0  0  0  0  0999 V2000
   -0.5735   -8.3439    0.0000 Cl  0  0  0  0  0  0  0  0  0  0  0  0
   -7.0686   -4.5941    0.0000 F   0  0  0  0  0  0  0  0  0  0  0  0
   -6.5195   -6.6431    0.0000 F   0  0  0  0  0  0  0  0  0  0  0  0
   -5.0195   -4.0450    0.0000 F   0  0  0  0  0  0  0  0  0  0  0  0
    0.7256   -7.5940    0.0000 O   0  0  0  0  0  0  0  0  0  0  0  0
    4.6225   -3.8441    0.0000 O   0  0  0  0  0  0  0  0  0  0  0  0
   11.4425   -3.5405    0.0000 N   0  0  0  0  0  0  0  0  0  0  0  0
   -0.5735   -5.3440    0.0000 N   0  0  0  0  0  0  0  0  0  0  0  0
    7.2205   -5.3440    0.0000 N   0  0  0  0  0  0  0  0  0  0  0  0
    5.9214   -6.0940    0.0000 N   0  0  0  0  0  0  0  0  0  0  0  0
   -4.4705   -6.0940    0.0000 C   0  0  0  0  0  0  0  0  0  0  0  0
   -1.8725   -6.0940    0.0000 C   0  0  0  0  0  0  0  0  0  0  0  0
   -5.7695   -5.3440    0.0000 C   0  0  0  0  0  0  0  0  0  0  0  0
   11.1887   -5.9542    0.0000 C   0  0  0  0  0  0  0  0  0  0  0  0
   12.1925   -4.8395    0.0000 C   0  0  0  0  0  0  0  0  0  0  0  0
   -3.1716   -5.3440    0.0000 C   0  0  0  0  0  0  0  0  0  0  0  0
    9.8186   -5.3440    0.0000 C   0  0  0  0  0  0  0  0  0  0  0  0
   -1.8725   -7.5940    0.0000 C   0  0  0  0  0  0  0  0  0  0  0  0
   -4.4705   -7.5940    0.0000 C   0  0  0  0  0  0  0  0  0  0  0  0
   -3.1716   -8.3439    0.0000 C   0  0  0  0  0  0  0  0  0  0  0  0
    9.9753   -3.8523    0.0000 C   0  0  0  0  0  0  0  0  0  0  0  0
   11.6523   -7.3807    0.0000 C   0  0  0  0  0  0  0  0  0  0  0  0
   13.6595   -5.1513    0.0000 C   0  0  0  0  0  0  0  0  0  0  0  0
    8.5195   -6.0940    0.0000 C   0  0  0  0  0  0  0  0  0  0  0  0
    0.7256   -6.0940    0.0000 C   0  0  0  0  0  0  0  0  0  0  0  0
   13.1194   -7.6925    0.0000 C   0  0  0  0  0  0  0  0  0  0  0  0
   14.1232   -6.5778    0.0000 C   0  0  0  0  0  0  0  0  0  0  0  0
    2.0244   -5.3440    0.0000 C   0  0  0  0  0  0  0  0  0  0  0  0
    4.6225   -5.3440    0.0000 C   0  0  0  0  0  0  0  0  0  0  0  0
    3.3235   -6.0940    0.0000 C   0  0  0  0  0  0  0  0  0  0  0  0
  1 18  1  0  0  0  0
  2 13  1  0  0  0  0
  3 13  1  0  0  0  0
  4 13  1  0  0  0  0
  5 25  2  0  0  0  0
  6 29  2  0  0  0  0
  7 15  1  0  0  0  0
  7 21  1  0  0  0  0
  8 12  1  0  0  0  0
  8 25  1  0  0  0  0
  9 10  1  0  0  0  0
  9 24  2  0  0  0  0
 10 29  1  0  0  0  0
 11 13  1  0  0  0  0
 11 16  1  0  0  0  0
 11 19  2  0  0  0  0
 12 16  2  0  0  0  0
 12 18  1  0  0  0  0
 14 15  1  0  0  0  0
 14 17  1  0  0  0  0
 14 22  2  0  0  0  0
 15 23  2  0  0  0  0
 17 21  2  0  0  0  0
 17 24  1  0  0  0  0
 18 20  2  0  0  0  0
 19 20  1  0  0  0  0
 22 26  1  0  0  0  0
 23 27  1  0  0  0  0
 25 28  1  0  0  0  0
 26 27  2  0  0  0  0
 28 30  1  0  0  0  0
 29 30  1  0  0  0  0
M  END
> <Value>
5.300000202445418

> <Relation>
<

> <SourceURI>
mol:CHEMBL1994308

$$$$

Generated by Molecular Materials Informatics

 26 30  0  0  0  0  0  0  0  0999 V2000
    4.9923    1.0787    0.0000 N   0  0  0  0  0  0  0  0  0  0  0  0
    5.9959   -0.0360    0.0000 C   0  0  0  0  0  0  0  0  0  0  0  0
    5.5325   -1.4626    0.0000 C   0  0  0  0  0  0  0  0  0  0  0  0
    4.0652   -1.7746    0.0000 C   0  0  0  0  0  0  0  0  0  0  0  0
    3.0616   -0.6598    0.0000 C   0  0  0  0  0  0  0  0  0  0  0  0
    3.5250    0.7667    0.0000 C   0  0  0  0  0  0  0  0  0  0  0  0
    2.3116    1.6485    0.0000 O   0  0  0  0  0  0  0  0  0  0  0  0
    1.0979    0.7667    0.0000 C   0  0  0  0  0  0  0  0  0  0  0  0
    1.5616   -0.6598    0.0000 C   0  0  0  0  0  0  0  0  0  0  0  0
    0.5578   -1.7746    0.0000 N   0  0  0  0  0  0  0  0  0  0  0  0
   -0.3692    1.0787    0.0000 C   0  0  0  0  0  0  0  0  0  0  0  0
   -0.8328    2.5053    0.0000 N   0  0  0  0  0  0  0  0  0  0  0  0
    0.1708    3.6200    0.0000 C   0  0  0  0  0  0  0  0  0  0  0  0
   -0.2926    5.0465    0.0000 C   0  0  0  0  0  0  0  0  0  0  0  0
   -1.7599    5.3584    0.0000 O   0  0  0  0  0  0  0  0  0  0  0  0
   -2.7635    4.2436    0.0000 C   0  0  0  0  0  0  0  0  0  0  0  0
   -2.3001    2.8171    0.0000 C   0  0  0  0  0  0  0  0  0  0  0  0
   -1.3730   -0.0360    0.0000 N   0  0  0  0  0  0  0  0  0  0  0  0
   -0.9093   -1.4626    0.0000 C   0  0  0  0  0  0  0  0  0  0  0  0
   -1.9132   -2.5773    0.0000 C   0  0  0  0  0  0  0  0  0  0  0  0
   -1.4495   -4.0040    0.0000 C   0  0  0  0  0  0  0  0  0  0  0  0
   -2.4533   -5.1188    0.0000 C   0  0  0  0  0  0  0  0  0  0  0  0
   -3.9204   -4.8068    0.0000 C   0  0  0  0  0  0  0  0  0  0  0  0
   -4.3841   -3.3802    0.0000 C   0  0  0  0  0  0  0  0  0  0  0  0
   -5.8513   -3.0684    0.0000 O   0  0  0  0  0  0  0  0  0  0  0  0
   -3.3803   -2.2655    0.0000 C   0  0  0  0  0  0  0  0  0  0  0  0
  2  1  1  0  0  0  0
  6  1  2  0  0  0  0
  2  3  2  0  0  0  0
  3  4  1  0  0  0  0
  4  5  2  0  0  0  0
  5  6  1  0  0  0  0
  5  9  1  0  0  0  0
  6  7  1  0  0  0  0
  8  7  1  0  0  0  0
  8  9  1  0  0  0  0
  8 11  2  0  0  0  0
  9 10  2  0  0  0  0
 19 10  1  0  0  0  0
 11 12  1  0  0  0  0
 11 18  1  0  0  0  0
 13 12  1  0  0  0  0
 17 12  1  0  0  0  0
 13 14  1  0  0  0  0
 14 15  1  0  0  0  0
 16 15  1  0  0  0  0
 16 17  1  0  0  0  0
 19 18  2  0  0  0  0
 19 20  1  0  0  0  0
 20 21  1  0  0  0  0
 20 26  2  0  0  0  0
 21 22  2  0  0  0  0
 22 23  1  0  0  0  0
 23 24  2  0  0  0  0
 24 25  1  0  0  0  0
 24 26  1  0  0  0  0
M  END
> <Value>
6.0999990348465305

> <Relation>
=

> <SourceURI>
mol:CHEMBL573339

$$$$

Generated by Molecular Materials Informatics

 31 35  0  0  0  0  0  0  0  0999 V2000
   -5.7553   -7.7456    0.0000 F   0  0  0  0  0  0  0  0  0  0  0  0
   -4.9049   -0.9245    0.0000 O   0  0  0  0  0  0  0  0  0  0  0  0
   -1.9704    2.1262    0.0000 N   0  0  0  0  0  0  0  0  0  0  0  0
   -2.8520    0.9127    0.0000 N   0  0  0  0  0  0  0  0  0  0  0  0
   -2.4338   -1.7275    0.0000 N   0  0  0  0  0  0  0  0  0  0  0  0
    5.7273   -1.0920    0.0000 N   0  0  0  0  0  0  0  0  0  0  0  0
    3.5102   -2.0791    0.0000 N   0  0  0  0  0  0  0  0  0  0  0  0
    4.9773   -2.3911    0.0000 N   0  0  0  0  0  0  0  0  0  0  0  0
   -0.5438    0.1627    0.0000 C   0  0  0  0  0  0  0  0  0  0  0  0
   -0.5438    1.6627    0.0000 C   0  0  0  0  0  0  0  0  0  0  0  0
   -1.9704   -0.3009    0.0000 C   0  0  0  0  0  0  0  0  0  0  0  0
    2.0543    0.1627    0.0000 C   0  0  0  0  0  0  0  0  0  0  0  0
    0.7553   -0.5873    0.0000 C   0  0  0  0  0  0  0  0  0  0  0  0
    3.3533   -0.5873    0.0000 C   0  0  0  0  0  0  0  0  0  0  0  0
    0.7553    2.4127    0.0000 C   0  0  0  0  0  0  0  0  0  0  0  0
    2.0543    1.6627    0.0000 C   0  0  0  0  0  0  0  0  0  0  0  0
    4.7236    0.0227    0.0000 C   0  0  0  0  0  0  0  0  0  0  0  0
   -3.9011   -2.0393    0.0000 C   0  0  0  0  0  0  0  0  0  0  0  0
   -4.3647   -3.4660    0.0000 C   0  0  0  0  0  0  0  0  0  0  0  0
    7.2191   -0.9351    0.0000 C   0  0  0  0  0  0  0  0  0  0  0  0
    8.1007   -2.1487    0.0000 C   0  0  0  0  0  0  0  0  0  0  0  0
   -3.3609   -4.5805    0.0000 C   0  0  0  0  0  0  0  0  0  0  0  0
   -5.8318   -3.7778    0.0000 C   0  0  0  0  0  0  0  0  0  0  0  0
   -5.2917   -6.3191    0.0000 C   0  0  0  0  0  0  0  0  0  0  0  0
   -3.8246   -6.0073    0.0000 C   0  0  0  0  0  0  0  0  0  0  0  0
   -6.2955   -5.2044    0.0000 C   0  0  0  0  0  0  0  0  0  0  0  0
    9.5925   -1.9918    0.0000 C   0  0  0  0  0  0  0  0  0  0  0  0
    7.4907   -3.5191    0.0000 C   0  0  0  0  0  0  0  0  0  0  0  0
   10.4742   -3.2054    0.0000 C   0  0  0  0  0  0  0  0  0  0  0  0
    8.3724   -4.7325    0.0000 C   0  0  0  0  0  0  0  0  0  0  0  0
    9.8642   -4.5758    0.0000 C   0  0  0  0  0  0  0  0  0  0  0  0
  1 24  1  0  0  0  0
  2 18  2  0  0  0  0
  3  4  1  0  0  0  0
  3 10  1  0  0  0  0
  4 11  2  0  0  0  0
  5 11  1  0  0  0  0
  5 18  1  0  0  0  0
  6  8  1  0  0  0  0
  6 17  1  0  0  0  0
  6 20  1  0  0  0  0
  7  8  2  0  0  0  0
  7 14  1  0  0  0  0
  9 10  1  0  0  0  0
  9 11  1  0  0  0  0
  9 13  2  0  0  0  0
 10 15  2  0  0  0  0
 12 13  1  0  0  0  0
 12 14  1  0  0  0  0
 12 16  2  0  0  0  0
 14 17  2  0  0  0  0
 15 16  1  0  0  0  0
 18 19  1  0  0  0  0
 19 22  2  0  0  0  0
 19 23  1  0  0  0  0
 20 21  1  0  0  0  0
 21 27  2  0  0  0  0
 21 28  1  0  0  0  0
 22 25  1  0  0  0  0
 23 26  2  0  0  0  0
 24 25  2  0  0  0  0
 24 26  1  0  0  0  0
 27 29  1  0  0  0  0
 28 30  2  0  0  0  0
 29 31  2  0  0  0  0
 30 31  1  0  0  0  0
M  END
> <Value>
7.299988937677887

> <Relation>
=

> <SourceURI>
mol:CHEMBL1966204

$$$$

Generated by Molecular Materials Informatics

 18 20  0  0  0  0  0  0  0  0999 V2000
    4.6806   -1.3012    0.0000 Br  0  0  0  0  0  0  0  0  0  0  0  0
   -2.5332   -2.9048    0.0000 S   0  0  0  0  0  0  0  0  0  0  0  0
   -3.7466   -5.2866    0.0000 S   0  0  0  0  0  0  0  0  0  0  0  0
   -3.0246    0.1988    0.0000 O   0  0  0  0  0  0  0  0  0  0  0  0
    1.2752   -3.6548    0.0000 O   0  0  0  0  0  0  0  0  0  0  0  0
   -0.6430    1.4123    0.0000 N   0  0  0  0  0  0  0  0  0  0  0  0
   -1.1065   -4.8684    0.0000 N   0  0  0  0  0  0  0  0  0  0  0  0
   -0.6430   -1.0148    0.0000 C   0  0  0  0  0  0  0  0  0  0  0  0
   -1.1065   -2.4414    0.0000 C   0  0  0  0  0  0  0  0  0  0  0  0
    0.7835   -0.5512    0.0000 C   0  0  0  0  0  0  0  0  0  0  0  0
    0.7835    0.9488    0.0000 C   0  0  0  0  0  0  0  0  0  0  0  0
   -1.5246    0.1988    0.0000 C   0  0  0  0  0  0  0  0  0  0  0  0
   -0.2248   -3.6548    0.0000 C   0  0  0  0  0  0  0  0  0  0  0  0
   -2.5332   -4.4048    0.0000 C   0  0  0  0  0  0  0  0  0  0  0  0
    2.0826   -1.3012    0.0000 C   0  0  0  0  0  0  0  0  0  0  0  0
    2.0826    1.6988    0.0000 C   0  0  0  0  0  0  0  0  0  0  0  0
    3.3817   -0.5512    0.0000 C   0  0  0  0  0  0  0  0  0  0  0  0
    3.3817    0.9488    0.0000 C   0  0  0  0  0  0  0  0  0  0  0  0
  1 17  1  0  0  0  0
  2  9  1  0  0  0  0
  2 14  1  0  0  0  0
  3 14  2  0  0  0  0
  4 12  2  0  0  0  0
  5 13  2  0  0  0  0
  6 11  1  0  0  0  0
  6 12  1  0  0  0  0
  7 13  1  0  0  0  0
  7 14  1  0  0  0  0
  8  9  2  0  0  0  0
  8 10  1  0  0  0  0
  8 12  1  0  0  0  0
  9 13  1  0  0  0  0
 10 11  1  0  0  0  0
 10 15  2  0  0  0  0
 11 16  2  0  0  0  0
 15 17  1  0  0  0  0
 16 18  1  0  0  0  0
 17 18  2  0  0  0  0
M  END
> <Value>
6.699991797446187

> <Relation>
=

> <SourceURI>
mol:CHEMBL2001920

$$$$

Generated by Molecular Materials Informatics

 23 26  0  0  0  0  0  0  0  0999 V2000
   -1.4914    4.9644    0.0000 S   0  0  0  0  0  0  0  0  0  0  0  0
    4.0400   -3.9605    0.0000 O   0  0  0  0  0  0  0  0  0  0  0  0
   -2.2816    6.2395    0.0000 O   0  0  0  0  0  0  0  0  0  0  0  0
   -2.7663    4.1742    0.0000 O   0  0  0  0  0  0  0  0  0  0  0  0
    3.1687   -0.0887    0.0000 N   0  0  0  0  0  0  0  0  0  0  0  0
   -0.7012    3.6895    0.0000 N   0  0  0  0  0  0  0  0  0  0  0  0
    1.7506   -2.7323    0.0000 N   0  0  0  0  0  0  0  0  0  0  0  0
    1.6695   -0.1354    0.0000 C   0  0  0  0  0  0  0  0  0  0  0  0
    3.9589   -1.3636    0.0000 C   0  0  0  0  0  0  0  0  0  0  0  0
    0.9604   -1.4572    0.0000 C   0  0  0  0  0  0  0  0  0  0  0  0
    3.2498   -2.6854    0.0000 C   0  0  0  0  0  0  0  0  0  0  0  0
   -0.6200    1.0926    0.0000 C   0  0  0  0  0  0  0  0  0  0  0  0
    0.8793    1.1395    0.0000 C   0  0  0  0  0  0  0  0  0  0  0  0
    0.7980    3.7362    0.0000 C   0  0  0  0  0  0  0  0  0  0  0  0
   -1.4102    2.3677    0.0000 C   0  0  0  0  0  0  0  0  0  0  0  0
    4.1371    1.0570    0.0000 C   0  0  0  0  0  0  0  0  0  0  0  0
   -0.5389   -1.5041    0.0000 C   0  0  0  0  0  0  0  0  0  0  0  0
    5.4156   -1.0061    0.0000 C   0  0  0  0  0  0  0  0  0  0  0  0
   -1.3291   -0.2292    0.0000 C   0  0  0  0  0  0  0  0  0  0  0  0
    2.0731    4.5266    0.0000 C   0  0  0  0  0  0  0  0  0  0  0  0
    2.1198    3.0273    0.0000 C   0  0  0  0  0  0  0  0  0  0  0  0
    5.5258    0.4899    0.0000 C   0  0  0  0  0  0  0  0  0  0  0  0
   -0.2163    5.7546    0.0000 C   0  0  0  0  0  0  0  0  0  0  0  0
  1  3  2  0  0  0  0
  1  4  2  0  0  0  0
  1  6  1  0  0  0  0
  1 23  1  0  0  0  0
  2 11  2  0  0  0  0
  5  8  1  0  0  0  0
  5  9  1  0  0  0  0
  5 16  1  0  0  0  0
  6 14  1  0  0  0  0
  6 15  1  0  0  0  0
  7 10  1  0  0  0  0
  7 11  1  0  0  0  0
  8 10  1  0  0  0  0
  8 13  2  0  0  0  0
  9 11  1  0  0  0  0
  9 18  2  0  0  0  0
 10 17  2  0  0  0  0
 12 13  1  0  0  0  0
 12 15  1  0  0  0  0
 12 19  2  0  0  0  0
 14 20  1  0  0  0  0
 14 21  1  0  0  0  0
 16 22  2  0  0  0  0
 17 19  1  0  0  0  0
 18 22  1  0  0  0  0
 20 21  1  0  0  0  0
M  END
> <Value>
5.499999678657065

> <Relation>
<

> <SourceURI>
mol:CHEMBL1978448

$$$$

Generated by Molecular Materials Informatics

 31 34  0  0  0  0  0  0  0  0999 V2000
   -5.7927    3.4392    0.0000 F   0  0  0  0  0  0  0  0  0  0  0  0
   -6.7198    6.2925    0.0000 F   0  0  0  0  0  0  0  0  0  0  0  0
    3.0409   -1.0330    0.0000 O   0  0  0  0  0  0  0  0  0  0  0  0
   -3.3983    0.2743    0.0000 N   0  0  0  0  0  0  0  0  0  0  0  0
   -1.1813   -1.3366    0.0000 N   0  0  0  0  0  0  0  0  0  0  0  0
   -3.8620    1.7008    0.0000 N   0  0  0  0  0  0  0  0  0  0  0  0
    0.2860   -1.0248    0.0000 N   0  0  0  0  0  0  0  0  0  0  0  0
    1.7418    1.2170    0.0000 N   0  0  0  0  0  0  0  0  0  0  0  0
    8.2371    0.4670    0.0000 N   0  0  0  0  0  0  0  0  0  0  0  0
   10.8351   -1.0330    0.0000 N   0  0  0  0  0  0  0  0  0  0  0  0
   -0.9274    1.0770    0.0000 C   0  0  0  0  0  0  0  0  0  0  0  0
   -1.9313   -0.0377    0.0000 C   0  0  0  0  0  0  0  0  0  0  0  0
   -2.8583    2.8156    0.0000 C   0  0  0  0  0  0  0  0  0  0  0  0
    0.4427    0.4670    0.0000 C   0  0  0  0  0  0  0  0  0  0  0  0
   -1.3911    2.5036    0.0000 C   0  0  0  0  0  0  0  0  0  0  0  0
   -3.3218    4.2421    0.0000 C   0  0  0  0  0  0  0  0  0  0  0  0
   -4.7891    4.5539    0.0000 C   0  0  0  0  0  0  0  0  0  0  0  0
   -2.3182    5.3568    0.0000 C   0  0  0  0  0  0  0  0  0  0  0  0
   -5.2525    5.9805    0.0000 C   0  0  0  0  0  0  0  0  0  0  0  0
    3.0409    0.4670    0.0000 C   0  0  0  0  0  0  0  0  0  0  0  0
   -2.7816    6.7834    0.0000 C   0  0  0  0  0  0  0  0  0  0  0  0
   -4.2489    7.0952    0.0000 C   0  0  0  0  0  0  0  0  0  0  0  0
    4.3398    1.2170    0.0000 C   0  0  0  0  0  0  0  0  0  0  0  0
    5.6389    0.4670    0.0000 C   0  0  0  0  0  0  0  0  0  0  0  0
    6.9380    1.2170    0.0000 C   0  0  0  0  0  0  0  0  0  0  0  0
    9.5360    1.2170    0.0000 C   0  0  0  0  0  0  0  0  0  0  0  0
    8.2371   -1.0330    0.0000 C   0  0  0  0  0  0  0  0  0  0  0  0
   10.8351    0.4670    0.0000 C   0  0  0  0  0  0  0  0  0  0  0  0
    9.5360   -1.7830    0.0000 C   0  0  0  0  0  0  0  0  0  0  0  0
   12.1342   -1.7830    0.0000 C   0  0  0  0  0  0  0  0  0  0  0  0
   13.4331   -1.0330    0.0000 C   0  0  0  0  0  0  0  0  0  0  0  0
  1 17  1  0  0  0  0
  2 19  1  0  0  0  0
  3 20  2  0  0  0  0
  4  6  1  0  0  0  0
  4 12  2  0  0  0  0
  5  7  1  0  0  0  0
  5 12  1  0  0  0  0
  6 13  2  0  0  0  0
  7 14  2  0  0  0  0
  8 14  1  0  0  0  0
  8 20  1  0  0  0  0
  9 25  1  0  0  0  0
  9 26  1  0  0  0  0
  9 27  1  0  0  0  0
 10 28  1  0  0  0  0
 10 29  1  0  0  0  0
 10 30  1  0  0  0  0
 11 12  1  0  0  0  0
 11 14  1  0  0  0  0
 11 15  2  0  0  0  0
 13 15  1  0  0  0  0
 13 16  1  0  0  0  0
 16 17  1  0  0  0  0
 16 18  2  0  0  0  0
 17 19  2  0  0  0  0
 18 21  1  0  0  0  0
 19 22  1  0  0  0  0
 20 23  1  0  0  0  0
 21 22  2  0  0  0  0
 23 24  1  0  0  0  0
 24 25  1  0  0  0  0
 26 28  1  0  0  0  0
 27 29  1  0  0  0  0
 30 31  1  0  0  0  0
M  END
> <Value>
5.899998417198648

> <Relation>
<

> <SourceURI>
mol:CHEMBL1992740

$$$$

Generated by Molecular Materials Informatics

 17 19  0  0  0  0  0  0  0  0999 V2000
   -1.3142   -4.4315    0.0000 O   0  0  0  0  0  0  0  0  0  0  0  0
    0.5759   -2.5414    0.0000 N   0  0  0  0  0  0  0  0  0  0  0  0
   -0.8507   -0.5779    0.0000 N   0  0  0  0  0  0  0  0  0  0  0  0
   -1.7323   -1.7914    0.0000 N   0  0  0  0  0  0  0  0  0  0  0  0
    1.8749    5.7086    0.0000 N   0  0  0  0  0  0  0  0  0  0  0  0
    0.5759   -1.0414    0.0000 C   0  0  0  0  0  0  0  0  0  0  0  0
    1.8749   -0.2914    0.0000 C   0  0  0  0  0  0  0  0  0  0  0  0
   -0.8507   -3.0050    0.0000 C   0  0  0  0  0  0  0  0  0  0  0  0
    1.8749    1.2086    0.0000 C   0  0  0  0  0  0  0  0  0  0  0  0
    1.8749   -3.2914    0.0000 C   0  0  0  0  0  0  0  0  0  0  0  0
    3.1740   -1.0414    0.0000 C   0  0  0  0  0  0  0  0  0  0  0  0
    3.1740   -2.5414    0.0000 C   0  0  0  0  0  0  0  0  0  0  0  0
    0.5759    1.9586    0.0000 C   0  0  0  0  0  0  0  0  0  0  0  0
    3.1740    1.9586    0.0000 C   0  0  0  0  0  0  0  0  0  0  0  0
    0.5759    3.4586    0.0000 C   0  0  0  0  0  0  0  0  0  0  0  0
    3.1740    3.4586    0.0000 C   0  0  0  0  0  0  0  0  0  0  0  0
    1.8749    4.2086    0.0000 C   0  0  0  0  0  0  0  0  0  0  0  0
  1  8  2  0  0  0  0
  2  6  1  0  0  0  0
  2  8  1  0  0  0  0
  2 10  1  0  0  0  0
  3  4  1  0  0  0  0
  3  6  2  0  0  0  0
  4  8  1  0  0  0  0
  5 17  1  0  0  0  0
  6  7  1  0  0  0  0
  7  9  1  0  0  0  0
  7 11  2  0  0  0  0
  9 13  2  0  0  0  0
  9 14  1  0  0  0  0
 10 12  2  0  0  0  0
 11 12  1  0  0  0  0
 13 15  1  0  0  0  0
 14 16  2  0  0  0  0
 15 17  2  0  0  0  0
 16 17  1  0  0  0  0
M  END
> <Value>
4.100000018985305

> <Relation>
=

> <SourceURI>
mol:CHEMBL1975503

$$$$

Generated by Molecular Materials Informatics

 21 23  0  0  0  0  0  0  0  0999 V2000
   14.5963    3.9013    0.0000 C   0  0  0  0  0  0  0  0  0  0  0  0
   13.2931    4.6440    0.0000 C   0  0  0  0  0  0  0  0  0  0  0  0
   12.0008    3.8913    0.0000 C   0  0  0  0  0  0  0  0  0  0  0  0
   12.0079    2.3892    0.0000 C   0  0  0  0  0  0  0  0  0  0  0  0
   13.3111    1.6463    0.0000 C   0  0  0  0  0  0  0  0  0  0  0  0
   14.6005    2.4095    0.0000 C   0  0  0  0  0  0  0  0  0  0  0  0
   10.7119    1.6297    0.0000 N   0  0  0  0  0  0  0  0  0  0  0  0
   12.0328   -2.1107    0.0000 C   0  0  0  0  0  0  0  0  0  0  0  0
   12.0221   -0.6151    0.0000 N   0  0  0  0  0  0  0  0  0  0  0  0
   10.7188    0.1276    0.0000 C   0  0  0  0  0  0  0  0  0  0  0  0
    9.4265   -0.6251    0.0000 C   0  0  0  0  0  0  0  0  0  0  0  0
    9.4336   -2.1272    0.0000 C   0  0  0  0  0  0  0  0  0  0  0  0
   10.7368   -2.8701    0.0000 N   0  0  0  0  0  0  0  0  0  0  0  0
   13.3315   -2.8376    0.0000 N   0  0  0  0  0  0  0  0  0  0  0  0
   14.6363   -2.0934    0.0000 C   0  0  0  0  0  0  0  0  0  0  0  0
   15.9345   -2.8492    0.0000 C   0  0  0  0  0  0  0  0  0  0  0  0
   17.2319   -2.1050    0.0000 C   0  0  0  0  0  0  0  0  0  0  0  0
   17.2386   -0.6051    0.0000 C   0  0  0  0  0  0  0  0  0  0  0  0
   15.9479    0.1431    0.0000 C   0  0  0  0  0  0  0  0  0  0  0  0
   14.6431   -0.6011    0.0000 C   0  0  0  0  0  0  0  0  0  0  0  0
    8.1235    0.1176    0.0000 F   0  0  0  0  0  0  0  0  0  0  0  0
  1  2  1  0  0  0  0
  2  3  2  0  0  0  0
  3  4  1  0  0  0  0
  4  5  2  0  0  0  0
  5  6  1  0  0  0  0
  1  6  2  0  0  0  0
  8  9  1  0  0  0  0
  9 10  2  0  0  0  0
 10 11  1  0  0  0  0
 11 12  2  0  0  0  0
 12 13  1  0  0  0  0
  8 13  2  0  0  0  0
 15 16  1  0  0  0  0
 16 17  2  0  0  0  0
 17 18  1  0  0  0  0
 18 19  2  0  0  0  0
 19 20  1  0  0  0  0
 15 20  2  0  0  0  0
 14 15  1  0  0  0  0
  8 14  1  0  0  0  0
 11 21  1  0  0  0  0
  7 10  1  0  0  0  0
  4  7  1  0  0  0  0
M  END
> <Value>
5.899998417198648

> <Relation>
<

> <SourceURI>
mol:CHEMBL491758

$$$$

Generated by Molecular Materials Informatics

 26 29  0  0  0  0  0  0  0  0999 V2000
    3.4577   -7.8477    0.0000 O   0  0  0  0  0  0  0  0  0  0  0  0
    0.5233   -7.2239    0.0000 O   0  0  0  0  0  0  0  0  0  0  0  0
    1.9339    0.6332    0.0000 N   0  0  0  0  0  0  0  0  0  0  0  0
    3.6877    4.0562    0.0000 N   0  0  0  0  0  0  0  0  0  0  0  0
    5.6185    2.3178    0.0000 N   0  0  0  0  0  0  0  0  0  0  0  0
    5.0783   -0.2235    0.0000 N   0  0  0  0  0  0  0  0  0  0  0  0
    4.0746   -1.3383    0.0000 N   0  0  0  0  0  0  0  0  0  0  0  0
    2.6839    2.9415    0.0000 C   0  0  0  0  0  0  0  0  0  0  0  0
    3.1475    1.5149    0.0000 C   0  0  0  0  0  0  0  0  0  0  0  0
    1.1838    2.9415    0.0000 C   0  0  0  0  0  0  0  0  0  0  0  0
    0.7204    1.5149    0.0000 C   0  0  0  0  0  0  0  0  0  0  0  0
    4.6148    1.2031    0.0000 C   0  0  0  0  0  0  0  0  0  0  0  0
    0.1802    4.0562    0.0000 C   0  0  0  0  0  0  0  0  0  0  0  0
   -0.7469    1.2031    0.0000 C   0  0  0  0  0  0  0  0  0  0  0  0
    5.1548    3.7444    0.0000 C   0  0  0  0  0  0  0  0  0  0  0  0
   -1.2871    3.7444    0.0000 C   0  0  0  0  0  0  0  0  0  0  0  0
   -1.7506    2.3178    0.0000 C   0  0  0  0  0  0  0  0  0  0  0  0
    3.5344   -3.8798    0.0000 C   0  0  0  0  0  0  0  0  0  0  0  0
    2.9942   -6.4211    0.0000 C   0  0  0  0  0  0  0  0  0  0  0  0
    1.5269   -6.1091    0.0000 C   0  0  0  0  0  0  0  0  0  0  0  0
    3.9979   -5.3064    0.0000 C   0  0  0  0  0  0  0  0  0  0  0  0
    4.5381   -2.7650    0.0000 C   0  0  0  0  0  0  0  0  0  0  0  0
    2.0671   -3.5678    0.0000 C   0  0  0  0  0  0  0  0  0  0  0  0
    1.0635   -4.6825    0.0000 C   0  0  0  0  0  0  0  0  0  0  0  0
    4.9250   -8.1595    0.0000 C   0  0  0  0  0  0  0  0  0  0  0  0
    0.9867   -8.6506    0.0000 C   0  0  0  0  0  0  0  0  0  0  0  0
  1 19  1  0  0  0  0
  1 25  1  0  0  0  0
  2 20  1  0  0  0  0
  2 26  1  0  0  0  0
  3  9  1  0  0  0  0
  3 11  1  0  0  0  0
  4  8  1  0  0  0  0
  4 15  2  0  0  0  0
  5 12  2  0  0  0  0
  5 15  1  0  0  0  0
  7  6  1  0  0  0  0
  6 12  1  0  0  0  0
  7 22  2  0  0  0  0
  8  9  2  0  0  0  0
  8 10  1  0  0  0  0
  9 12  1  0  0  0  0
 10 11  1  0  0  0  0
 10 13  2  0  0  0  0
 11 14  2  0  0  0  0
 13 16  1  0  0  0  0
 14 17  1  0  0  0  0
 16 17  2  0  0  0  0
 18 21  1  0  0  0  0
 18 22  1  0  0  0  0
 18 23  2  0  0  0  0
 19 20  1  0  0  0  0
 19 21  2  0  0  0  0
 20 24  2  0  0  0  0
 23 24  1  0  0  0  0
M  END
> <Value>
5.899998417198648

> <Relation>
<

> <SourceURI>
mol:CHEMBL1974664

$$$$

Generated by Molecular Materials Informatics

 26 29  0  0  0  0  0  0  0  0999 V2000
   10.2211   -6.9519    0.0000 F   0  0  0  0  0  0  0  0  0  0  0  0
    5.0251   -2.4521    0.0000 O   0  0  0  0  0  0  0  0  0  0  0  0
   -2.8965    2.3343    0.0000 N   0  0  0  0  0  0  0  0  0  0  0  0
   -3.7781    3.5478    0.0000 N   0  0  0  0  0  0  0  0  0  0  0  0
    6.3240   -0.2021    0.0000 N   0  0  0  0  0  0  0  0  0  0  0  0
    7.6230   -2.4521    0.0000 N   0  0  0  0  0  0  0  0  0  0  0  0
    1.1281    2.7978    0.0000 C   0  0  0  0  0  0  0  0  0  0  0  0
   -1.4700    2.7978    0.0000 C   0  0  0  0  0  0  0  0  0  0  0  0
   -1.4700    4.2977    0.0000 C   0  0  0  0  0  0  0  0  0  0  0  0
    2.4270    2.0478    0.0000 C   0  0  0  0  0  0  0  0  0  0  0  0
   -0.1709    2.0478    0.0000 C   0  0  0  0  0  0  0  0  0  0  0  0
    1.1281    4.2977    0.0000 C   0  0  0  0  0  0  0  0  0  0  0  0
   -0.1709    5.0477    0.0000 C   0  0  0  0  0  0  0  0  0  0  0  0
   -2.8965    4.7614    0.0000 C   0  0  0  0  0  0  0  0  0  0  0  0
    5.0251    0.5479    0.0000 C   0  0  0  0  0  0  0  0  0  0  0  0
    3.7260    2.7978    0.0000 C   0  0  0  0  0  0  0  0  0  0  0  0
    2.4270    0.5479    0.0000 C   0  0  0  0  0  0  0  0  0  0  0  0
    5.0251    2.0478    0.0000 C   0  0  0  0  0  0  0  0  0  0  0  0
    3.7260   -0.2021    0.0000 C   0  0  0  0  0  0  0  0  0  0  0  0
    6.3240   -1.7021    0.0000 C   0  0  0  0  0  0  0  0  0  0  0  0
    7.6230   -3.9520    0.0000 C   0  0  0  0  0  0  0  0  0  0  0  0
    8.9221   -4.7020    0.0000 C   0  0  0  0  0  0  0  0  0  0  0  0
    8.9221   -6.2019    0.0000 C   0  0  0  0  0  0  0  0  0  0  0  0
    6.3240   -4.7020    0.0000 C   0  0  0  0  0  0  0  0  0  0  0  0
    7.6230   -6.9519    0.0000 C   0  0  0  0  0  0  0  0  0  0  0  0
    6.3240   -6.2019    0.0000 C   0  0  0  0  0  0  0  0  0  0  0  0
  1 23  1  0  0  0  0
  2 20  2  0  0  0  0
  3  4  1  0  0  0  0
  3  8  1  0  0  0  0
  4 14  2  0  0  0  0
  5 15  1  0  0  0  0
  5 20  1  0  0  0  0
  6 20  1  0  0  0  0
  6 21  1  0  0  0  0
  7 10  1  0  0  0  0
  7 11  1  0  0  0  0
  7 12  2  0  0  0  0
  8  9  1  0  0  0  0
  8 11  2  0  0  0  0
  9 13  2  0  0  0  0
  9 14  1  0  0  0  0
 10 16  2  0  0  0  0
 10 17  1  0  0  0  0
 12 13  1  0  0  0  0
 15 18  2  0  0  0  0
 15 19  1  0  0  0  0
 16 18  1  0  0  0  0
 17 19  2  0  0  0  0
 21 22  2  0  0  0  0
 21 24  1  0  0  0  0
 22 23  1  0  0  0  0
 23 25  2  0  0  0  0
 24 26  2  0  0  0  0
 25 26  1  0  0  0  0
M  END
> <Value>
5.300000202445418

> <Relation>
<

> <SourceURI>
mol:CHEMBL1969942

$$$$

Generated by Molecular Materials Informatics

 35 38  0  0  0  0  0  0  0  0999 V2000
   10.7481    6.2317    0.0000 S   0  0  0  0  0  0  0  0  0  0  0  0
    3.6874   -3.3994    0.0000 O   0  0  0  0  0  0  0  0  0  0  0  0
    7.1854   -2.4622    0.0000 O   0  0  0  0  0  0  0  0  0  0  0  0
   -4.5041   -4.3534    0.0000 O   0  0  0  0  0  0  0  0  0  0  0  0
   -2.0332   -5.1563    0.0000 O   0  0  0  0  0  0  0  0  0  0  0  0
   11.4980    7.5308    0.0000 O   0  0  0  0  0  0  0  0  0  0  0  0
    9.4490    6.9817    0.0000 O   0  0  0  0  0  0  0  0  0  0  0  0
   -2.5734   -2.6151    0.0000 N   0  0  0  0  0  0  0  0  0  0  0  0
    2.7502    0.0985    0.0000 N   0  0  0  0  0  0  0  0  0  0  0  0
    6.2481    1.0358    0.0000 N   0  0  0  0  0  0  0  0  0  0  0  0
   -3.4550   -1.4015    0.0000 N   0  0  0  0  0  0  0  0  0  0  0  0
   12.0471    5.4817    0.0000 N   0  0  0  0  0  0  0  0  0  0  0  0
    4.0492   -0.6515    0.0000 C   0  0  0  0  0  0  0  0  0  0  0  0
    5.4981   -0.2633    0.0000 C   0  0  0  0  0  0  0  0  0  0  0  0
    4.4374   -2.1004    0.0000 C   0  0  0  0  0  0  0  0  0  0  0  0
    5.8863   -1.7122    0.0000 C   0  0  0  0  0  0  0  0  0  0  0  0
   -1.1469   -2.1515    0.0000 C   0  0  0  0  0  0  0  0  0  0  0  0
   -1.1469   -0.6515    0.0000 C   0  0  0  0  0  0  0  0  0  0  0  0
    1.4513   -0.6515    0.0000 C   0  0  0  0  0  0  0  0  0  0  0  0
    0.1522    0.0985    0.0000 C   0  0  0  0  0  0  0  0  0  0  0  0
    0.1522   -2.9014    0.0000 C   0  0  0  0  0  0  0  0  0  0  0  0
   -2.5734   -0.1880    0.0000 C   0  0  0  0  0  0  0  0  0  0  0  0
    1.4513   -2.1515    0.0000 C   0  0  0  0  0  0  0  0  0  0  0  0
   -3.0368   -4.0416    0.0000 C   0  0  0  0  0  0  0  0  0  0  0  0
    7.7481    1.0358    0.0000 C   0  0  0  0  0  0  0  0  0  0  0  0
    8.4981    2.3347    0.0000 C   0  0  0  0  0  0  0  0  0  0  0  0
    9.9981    4.9328    0.0000 C   0  0  0  0  0  0  0  0  0  0  0  0
   -4.9677   -5.7801    0.0000 C   0  0  0  0  0  0  0  0  0  0  0  0
    7.7481    3.6337    0.0000 C   0  0  0  0  0  0  0  0  0  0  0  0
    9.9981    2.3347    0.0000 C   0  0  0  0  0  0  0  0  0  0  0  0
    8.4981    4.9328    0.0000 C   0  0  0  0  0  0  0  0  0  0  0  0
   10.7481    3.6337    0.0000 C   0  0  0  0  0  0  0  0  0  0  0  0
   -5.4311   -7.2067    0.0000 C   0  0  0  0  0  0  0  0  0  0  0  0
   -6.3942   -5.3165    0.0000 C   0  0  0  0  0  0  0  0  0  0  0  0
   -3.5410   -6.2436    0.0000 C   0  0  0  0  0  0  0  0  0  0  0  0
  1  6  2  0  0  0  0
  1  7  2  0  0  0  0
  1 12  1  0  0  0  0
  1 27  1  0  0  0  0
  2 15  2  0  0  0  0
  3 16  2  0  0  0  0
  4 24  1  0  0  0  0
  4 28  1  0  0  0  0
  5 24  2  0  0  0  0
  8 11  1  0  0  0  0
  8 17  1  0  0  0  0
  8 24  1  0  0  0  0
  9 13  1  0  0  0  0
  9 19  1  0  0  0  0
 10 14  1  0  0  0  0
 10 25  1  0  0  0  0
 11 22  2  0  0  0  0
 13 14  2  0  0  0  0
 13 15  1  0  0  0  0
 14 16  1  0  0  0  0
 15 16  1  0  0  0  0
 17 18  1  0  0  0  0
 17 21  2  0  0  0  0
 18 20  2  0  0  0  0
 18 22  1  0  0  0  0
 19 20  1  0  0  0  0
 19 23  2  0  0  0  0
 21 23  1  0  0  0  0
 25 26  1  0  0  0  0
 26 29  2  0  0  0  0
 26 30  1  0  0  0  0
 27 31  2  0  0  0  0
 27 32  1  0  0  0  0
 28 33  1  0  0  0  0
 28 34  1  0  0  0  0
 28 35  1  0  0  0  0
 29 31  1  0  0  0  0
 30 32  2  0  0  0  0
M  END
> <Value>
5.899998417198648

> <Relation>
<

> <SourceURI>
mol:CHEMBL1969506

$$$$

Generated by Molecular Materials Informatics

 25 29  0  0  0  0  0  0  0  0999 V2000
    0.9766    0.2297    0.0000 C   0  0  0  0  0  0  0  0  0  0  0  0
    2.2739   -2.0246    0.0000 C   0  0  0  0  0  0  0  0  0  0  0  0
    2.2707    0.9801    0.0000 C   0  0  0  0  0  0  0  0  0  0  0  0
    3.5709    0.2364    0.0000 C   0  0  0  0  0  0  0  0  0  0  0  0
    3.5714   -1.2656    0.0000 C   0  0  0  0  0  0  0  0  0  0  0  0
    5.8832   -0.5140    0.0000 N   0  0  0  0  0  0  0  0  0  0  0  0
    4.9995    0.7010    0.0000 C   0  0  0  0  0  0  0  0  0  0  0  0
   -0.3149    0.9870    0.0000 C   0  0  0  0  0  0  0  0  0  0  0  0
   -0.4720    2.4784    0.0000 N   0  0  0  0  0  0  0  0  0  0  0  0
   -1.6846    0.3768    0.0000 C   0  0  0  0  0  0  0  0  0  0  0  0
   -2.6885    1.4907    0.0000 N   0  0  0  0  0  0  0  0  0  0  0  0
   -1.9412    2.7913    0.0000 C   0  0  0  0  0  0  0  0  0  0  0  0
   -2.6892    4.0815    0.0000 N   0  0  0  0  0  0  0  0  0  0  0  0
   -4.1880    4.0828    0.0000 C   0  0  0  0  0  0  0  0  0  0  0  0
   -4.9357    2.7826    0.0000 C   0  0  0  0  0  0  0  0  0  0  0  0
   -4.1842    1.4807    0.0000 C   0  0  0  0  0  0  0  0  0  0  0  0
   -3.2927   -1.8444    0.0000 C   0  0  0  0  0  0  0  0  0  0  0  0
   -4.5860   -1.0902    0.0000 C   0  0  0  0  0  0  0  0  0  0  0  0
   -5.8788   -1.8371    0.0000 C   0  0  0  0  0  0  0  0  0  0  0  0
   -5.8823   -3.3374    0.0000 C   0  0  0  0  0  0  0  0  0  0  0  0
   -4.5817   -4.0874    0.0000 C   0  0  0  0  0  0  0  0  0  0  0  0
   -3.2776   -3.3374    0.0000 C   0  0  0  0  0  0  0  0  0  0  0  0
    4.9991   -1.7260    0.0000 N   0  0  0  0  0  0  0  0  0  0  0  0
   -1.9959   -1.0905    0.0000 N   0  0  0  0  0  0  0  0  0  0  0  0
    0.9746   -1.2740    0.0000 C   0  0  0  0  0  0  0  0  0  0  0  0
  1 25  2  0  0  0  0
 25  2  1  0  0  0  0
  2  5  2  0  0  0  0
  4  3  2  0  0  0  0
  3  1  1  0  0  0  0
  4  5  1  0  0  0  0
  6  7  2  0  0  0  0
  7  4  1  0  0  0  0
  8  9  1  0  0  0  0
  9 12  2  0  0  0  0
 11 10  1  0  0  0  0
 10  8  2  0  0  0  0
  1  8  1  0  0  0  0
 11 12  1  0  0  0  0
 11 16  1  0  0  0  0
 12 13  1  0  0  0  0
 13 14  2  0  0  0  0
 14 15  1  0  0  0  0
 15 16  2  0  0  0  0
 17 18  1  0  0  0  0
 17 22  1  0  0  0  0
 18 19  1  0  0  0  0
 19 20  1  0  0  0  0
 20 21  1  0  0  0  0
 21 22  1  0  0  0  0
  5 23  1  0  0  0  0
  6 23  1  0  0  0  0
 10 24  1  0  0  0  0
 17 24  1  0  0  0  0
M  END
> <Value>
5.899998417198648

> <Relation>
=

> <SourceURI>
mol:CHEMBL1682552

$$$$

Generated by Molecular Materials Informatics

 18 20  0  0  0  0  0  0  0  0999 V2000
   -2.8948    0.6440    0.0000 O   0  0  0  0  0  0  0  0  0  0  0  0
   -0.5132    1.8574    0.0000 N   0  0  0  0  0  0  0  0  0  0  0  0
   -0.2848   -4.5782    0.0000 N   0  0  0  0  0  0  0  0  0  0  0  0
   -0.5132   -0.5697    0.0000 C   0  0  0  0  0  0  0  0  0  0  0  0
    0.9134   -0.1060    0.0000 C   0  0  0  0  0  0  0  0  0  0  0  0
    0.9134    1.3940    0.0000 C   0  0  0  0  0  0  0  0  0  0  0  0
   -1.3948    0.6440    0.0000 C   0  0  0  0  0  0  0  0  0  0  0  0
    0.0270   -3.1109    0.0000 C   0  0  0  0  0  0  0  0  0  0  0  0
   -0.9767   -1.9962    0.0000 C   0  0  0  0  0  0  0  0  0  0  0  0
    1.5188   -2.9542    0.0000 C   0  0  0  0  0  0  0  0  0  0  0  0
    2.2124   -0.8560    0.0000 C   0  0  0  0  0  0  0  0  0  0  0  0
    2.2124    2.1440    0.0000 C   0  0  0  0  0  0  0  0  0  0  0  0
    1.0141   -5.3282    0.0000 C   0  0  0  0  0  0  0  0  0  0  0  0
    2.1288   -4.3244    0.0000 C   0  0  0  0  0  0  0  0  0  0  0  0
    3.5115   -0.1060    0.0000 C   0  0  0  0  0  0  0  0  0  0  0  0
    3.5115    1.3940    0.0000 C   0  0  0  0  0  0  0  0  0  0  0  0
    2.2688   -1.6551    0.0000 C   0  0  0  0  0  0  0  0  0  0  0  0
    1.1710   -6.8199    0.0000 C   0  0  0  0  0  0  0  0  0  0  0  0
  1  7  2  0  0  0  0
  2  6  1  0  0  0  0
  2  7  1  0  0  0  0
  3  8  1  0  0  0  0
  3 13  1  0  0  0  0
  4  5  1  0  0  0  0
  4  7  1  0  0  0  0
  4  9  2  0  0  0  0
  5  6  1  0  0  0  0
  5 11  2  0  0  0  0
  6 12  2  0  0  0  0
  9  8  1  0  0  0  0
  8 10  2  0  0  0  0
 10 14  1  0  0  0  0
 10 17  1  0  0  0  0
 11 15  1  0  0  0  0
 12 16  1  0  0  0  0
 13 14  2  0  0  0  0
 13 18  1  0  0  0  0
 15 16  2  0  0  0  0
M  END
> <Value>
5.899998417198648

> <Relation>
<

> <SourceURI>
mol:CHEMBL2002702

$$$$

Generated by Molecular Materials Informatics

 23 24  0  0  0  0  0  0  0  0999 V2000
   -6.2177   -7.8969    0.0000 C   0  0  0  0  0  0  0  0  0  0  0  0
   -6.2199   -9.4012    0.0000 C   0  0  0  0  0  0  0  0  0  0  0  0
   -4.9203  -10.1520    0.0000 C   0  0  0  0  0  0  0  0  0  0  0  0
   -3.6175   -9.4003    0.0000 C   0  0  0  0  0  0  0  0  0  0  0  0
   -3.6228   -7.8903    0.0000 C   0  0  0  0  0  0  0  0  0  0  0  0
   -4.9235   -7.1465    0.0000 C   0  0  0  0  0  0  0  0  0  0  0  0
   -4.9279   -5.6465    0.0000 Cl  0  0  0  0  0  0  0  0  0  0  0  0
   -4.9206  -11.6520    0.0000 O   0  0  0  0  0  0  0  0  0  0  0  0
   -6.2199  -12.4016    0.0000 C   0  0  0  0  0  0  0  0  0  0  0  0
   -2.3173  -10.1483    0.0000 N   0  0  0  0  0  0  0  0  0  0  0  0
   -1.0195   -9.3963    0.0000 C   0  0  0  0  0  0  0  0  0  0  0  0
    0.2806  -10.1443    0.0000 N   0  0  0  0  0  0  0  0  0  0  0  0
   -1.0219   -7.8963    0.0000 O   0  0  0  0  0  0  0  0  0  0  0  0
    1.5785   -9.3921    0.0000 C   0  0  0  0  0  0  0  0  0  0  0  0
    2.8765  -10.1427    0.0000 N   0  0  0  0  0  0  0  0  0  0  0  0
    4.1734   -9.3918    0.0000 C   0  0  0  0  0  0  0  0  0  0  0  0
    4.1717   -7.8903    0.0000 C   0  0  0  0  0  0  0  0  0  0  0  0
    2.8625   -7.1427    0.0000 N   0  0  0  0  0  0  0  0  0  0  0  0
    1.5708   -7.8976    0.0000 C   0  0  0  0  0  0  0  0  0  0  0  0
    5.4686   -7.1365    0.0000 C   0  0  0  0  0  0  0  0  0  0  0  0
    6.7655   -6.3827    0.0000 N   0  0  0  0  0  0  0  0  0  0  0  0
   -7.5170   -7.1472    0.0000 C   0  0  0  0  0  0  0  0  0  0  0  0
   -7.5173   -5.6472    0.0000 O   0  0  0  0  0  0  0  0  0  0  0  0
  5  6  1  0  0  0  0
 11 12  1  0  0  0  0
  6  1  2  0  0  0  0
 11 13  2  0  0  0  0
  1  2  1  0  0  0  0
 12 14  1  0  0  0  0
  6  7  1  0  0  0  0
 14 15  2  0  0  0  0
  3  4  1  0  0  0  0
 15 16  1  0  0  0  0
  3  8  1  0  0  0  0
 16 17  2  0  0  0  0
 17 18  1  0  0  0  0
  8  9  1  0  0  0  0
 18 19  2  0  0  0  0
 19 14  1  0  0  0  0
  4  5  2  0  0  0  0
 17 20  1  0  0  0  0
  4 10  1  0  0  0  0
 20 21  3  0  0  0  0
  2  3  2  0  0  0  0
  1 22  1  0  0  0  0
 10 11  1  0  0  0  0
 22 23  2  0  0  0  0
M  END
> <Value>
5.899998417198648

> <Relation>
<

> <SourceURI>
mol:CHEMBL207995

$$$$

Generated by Molecular Materials Informatics

 30 33  0  0  0  0  0  0  0  0999 V2000
    3.2097   -2.2604    0.0000 Cl  0  0  0  0  0  0  0  0  0  0  0  0
    3.7529   -7.4283    0.0000 Cl  0  0  0  0  0  0  0  0  0  0  0  0
    1.5713   -2.3610    0.0000 S   0  0  0  0  0  0  0  0  0  0  0  0
    1.3795   -6.3715    0.0000 O   0  0  0  0  0  0  0  0  0  0  0  0
   -0.8556   -2.3610    0.0000 N   0  0  0  0  0  0  0  0  0  0  0  0
    0.3578    0.0207    0.0000 N   0  0  0  0  0  0  0  0  0  0  0  0
   -1.2738   -5.0012    0.0000 N   0  0  0  0  0  0  0  0  0  0  0  0
    5.5540    3.0207    0.0000 N   0  0  0  0  0  0  0  0  0  0  0  0
    8.1520    4.5207    0.0000 N   0  0  0  0  0  0  0  0  0  0  0  0
    1.1078   -3.7877    0.0000 C   0  0  0  0  0  0  0  0  0  0  0  0
    1.9895   -5.0012    0.0000 C   0  0  0  0  0  0  0  0  0  0  0  0
    3.4813   -4.8444    0.0000 C   0  0  0  0  0  0  0  0  0  0  0  0
   -0.3922   -3.7877    0.0000 C   0  0  0  0  0  0  0  0  0  0  0  0
    0.3578   -1.4793    0.0000 C   0  0  0  0  0  0  0  0  0  0  0  0
    4.0915   -3.4741    0.0000 C   0  0  0  0  0  0  0  0  0  0  0  0
    4.3629   -6.0579    0.0000 C   0  0  0  0  0  0  0  0  0  0  0  0
    1.6569    0.7707    0.0000 C   0  0  0  0  0  0  0  0  0  0  0  0
    5.5831   -3.3172    0.0000 C   0  0  0  0  0  0  0  0  0  0  0  0
    5.8547   -5.9012    0.0000 C   0  0  0  0  0  0  0  0  0  0  0  0
    4.2549    2.2707    0.0000 C   0  0  0  0  0  0  0  0  0  0  0  0
    6.4649   -4.5308    0.0000 C   0  0  0  0  0  0  0  0  0  0  0  0
    1.6569    2.2707    0.0000 C   0  0  0  0  0  0  0  0  0  0  0  0
    2.9558    0.0207    0.0000 C   0  0  0  0  0  0  0  0  0  0  0  0
    2.9558    3.0207    0.0000 C   0  0  0  0  0  0  0  0  0  0  0  0
    4.2549    0.7707    0.0000 C   0  0  0  0  0  0  0  0  0  0  0  0
    5.5540    4.5207    0.0000 C   0  0  0  0  0  0  0  0  0  0  0  0
    6.8531    2.2707    0.0000 C   0  0  0  0  0  0  0  0  0  0  0  0
    6.8531    5.2707    0.0000 C   0  0  0  0  0  0  0  0  0  0  0  0
    8.1520    3.0207    0.0000 C   0  0  0  0  0  0  0  0  0  0  0  0
    9.4511    5.2707    0.0000 C   0  0  0  0  0  0  0  0  0  0  0  0
  1 15  1  0  0  0  0
  2 16  1  0  0  0  0
  3 10  1  0  0  0  0
  3 14  1  0  0  0  0
  4 11  2  0  0  0  0
  5 13  1  0  0  0  0
  5 14  2  0  0  0  0
  6 14  1  0  0  0  0
  6 17  1  0  0  0  0
  7 13  1  0  0  0  0
  8 20  1  0  0  0  0
  8 26  1  0  0  0  0
  8 27  1  0  0  0  0
  9 28  1  0  0  0  0
  9 29  1  0  0  0  0
  9 30  1  0  0  0  0
 10 11  1  0  0  0  0
 10 13  2  0  0  0  0
 11 12  1  0  0  0  0
 12 15  1  0  0  0  0
 12 16  2  0  0  0  0
 15 18  2  0  0  0  0
 16 19  1  0  0  0  0
 17 22  2  0  0  0  0
 17 23  1  0  0  0  0
 18 21  1  0  0  0  0
 19 21  2  0  0  0  0
 20 24  2  0  0  0  0
 20 25  1  0  0  0  0
 22 24  1  0  0  0  0
 23 25  2  0  0  0  0
 26 28  1  0  0  0  0
 27 29  1  0  0  0  0
M  END
> <Value>
5.300000202445418

> <Relation>
<

> <SourceURI>
mol:CHEMBL1989043

$$$$

Generated by Molecular Materials Informatics

 29 33  0  0  0  0  0  0  0  0999 V2000
    6.1526   -1.3125    0.0000 Cl  0  0  0  0  0  0  0  0  0  0  0  0
   -1.6415    1.6874    0.0000 O   0  0  0  0  0  0  0  0  0  0  0  0
    0.9565    1.6874    0.0000 N   0  0  0  0  0  0  0  0  0  0  0  0
   -1.7984   -2.8043    0.0000 N   0  0  0  0  0  0  0  0  0  0  0  0
   -3.2654   -3.1161    0.0000 N   0  0  0  0  0  0  0  0  0  0  0  0
    0.9565   -1.3125    0.0000 C   0  0  0  0  0  0  0  0  0  0  0  0
   -0.3426   -0.5625    0.0000 C   0  0  0  0  0  0  0  0  0  0  0  0
    2.2556   -0.5625    0.0000 C   0  0  0  0  0  0  0  0  0  0  0  0
   -1.6415   -1.3125    0.0000 C   0  0  0  0  0  0  0  0  0  0  0  0
    2.2556    0.9374    0.0000 C   0  0  0  0  0  0  0  0  0  0  0  0
   -0.3426    0.9374    0.0000 C   0  0  0  0  0  0  0  0  0  0  0  0
    0.9565   -2.8125    0.0000 C   0  0  0  0  0  0  0  0  0  0  0  0
    3.5544   -1.3125    0.0000 C   0  0  0  0  0  0  0  0  0  0  0  0
   -3.0118   -0.7023    0.0000 C   0  0  0  0  0  0  0  0  0  0  0  0
   -4.0154   -1.8171    0.0000 C   0  0  0  0  0  0  0  0  0  0  0  0
    3.5544    1.6874    0.0000 C   0  0  0  0  0  0  0  0  0  0  0  0
    4.8535   -0.5625    0.0000 C   0  0  0  0  0  0  0  0  0  0  0  0
    2.2556   -3.5625    0.0000 C   0  0  0  0  0  0  0  0  0  0  0  0
   -0.3426   -3.5625    0.0000 C   0  0  0  0  0  0  0  0  0  0  0  0
   -5.5072   -1.6603    0.0000 C   0  0  0  0  0  0  0  0  0  0  0  0
    4.8535    0.9374    0.0000 C   0  0  0  0  0  0  0  0  0  0  0  0
    2.2556   -5.0624    0.0000 C   0  0  0  0  0  0  0  0  0  0  0  0
   -0.3426   -5.0624    0.0000 C   0  0  0  0  0  0  0  0  0  0  0  0
   -6.3890   -2.8738    0.0000 C   0  0  0  0  0  0  0  0  0  0  0  0
   -6.1174   -0.2900    0.0000 C   0  0  0  0  0  0  0  0  0  0  0  0
    0.9565   -5.8124    0.0000 C   0  0  0  0  0  0  0  0  0  0  0  0
   -7.8806   -2.7170    0.0000 C   0  0  0  0  0  0  0  0  0  0  0  0
   -7.6092   -0.1333    0.0000 C   0  0  0  0  0  0  0  0  0  0  0  0
   -8.4908   -1.3467    0.0000 C   0  0  0  0  0  0  0  0  0  0  0  0
  1 17  1  0  0  0  0
  2 11  2  0  0  0  0
  3 10  1  0  0  0  0
  3 11  1  0  0  0  0
  4  5  1  0  0  0  0
  4  9  2  0  0  0  0
  5 15  1  0  0  0  0
  6  7  2  0  0  0  0
  6  8  1  0  0  0  0
  6 12  1  0  0  0  0
  7  9  1  0  0  0  0
  7 11  1  0  0  0  0
  8 10  1  0  0  0  0
  8 13  2  0  0  0  0
  9 14  1  0  0  0  0
 10 16  2  0  0  0  0
 12 18  2  0  0  0  0
 12 19  1  0  0  0  0
 13 17  1  0  0  0  0
 14 15  1  0  0  0  0
 15 20  1  0  0  0  0
 16 21  1  0  0  0  0
 17 21  2  0  0  0  0
 18 22  1  0  0  0  0
 19 23  2  0  0  0  0
 20 24  2  0  0  0  0
 20 25  1  0  0  0  0
 22 26  2  0  0  0  0
 23 26  1  0  0  0  0
 24 27  1  0  0  0  0
 25 28  2  0  0  0  0
 27 29  2  0  0  0  0
 28 29  1  0  0  0  0
M  END
> <Value>
5.899998417198648

> <Relation>
<

> <SourceURI>
mol:CHEMBL1992796

$$$$

Generated by Molecular Materials Informatics

 21 24  0  0  0  0  0  0  0  0999 V2000
    3.3904   -5.1151    0.0000 C   0  0  0  0  0  0  0  0  0  0  0  0
    3.8540   -3.6885    0.0000 N   0  0  0  0  0  0  0  0  0  0  0  0
    2.9722   -2.4749    0.0000 C   0  0  0  0  0  0  0  0  0  0  0  0
    3.8540   -1.2614    0.0000 C   0  0  0  0  0  0  0  0  0  0  0  0
    3.3904    0.1651    0.0000 C   0  0  0  0  0  0  0  0  0  0  0  0
    1.9233    0.4771    0.0000 C   0  0  0  0  0  0  0  0  0  0  0  0
    0.8086   -0.5267    0.0000 C   0  0  0  0  0  0  0  0  0  0  0  0
    0.9653   -2.0185    0.0000 O   0  0  0  0  0  0  0  0  0  0  0  0
   -0.4905    0.2233    0.0000 N   0  0  0  0  0  0  0  0  0  0  0  0
   -0.1787    1.6905    0.0000 C   0  0  0  0  0  0  0  0  0  0  0  0
   -1.0603    2.9040    0.0000 C   0  0  0  0  0  0  0  0  0  0  0  0
   -0.4503    4.2743    0.0000 C   0  0  0  0  0  0  0  0  0  0  0  0
    1.0415    4.4311    0.0000 C   0  0  0  0  0  0  0  0  0  0  0  0
    1.9233    3.2176    0.0000 N   0  0  0  0  0  0  0  0  0  0  0  0
    1.3131    1.8473    0.0000 C   0  0  0  0  0  0  0  0  0  0  0  0
    5.2805   -1.7249    0.0000 C   0  0  0  0  0  0  0  0  0  0  0  0
    6.5796   -0.9749    0.0000 C   0  0  0  0  0  0  0  0  0  0  0  0
    7.8785   -1.7249    0.0000 C   0  0  0  0  0  0  0  0  0  0  0  0
    7.8785   -3.2249    0.0000 C   0  0  0  0  0  0  0  0  0  0  0  0
    6.5796   -3.9749    0.0000 C   0  0  0  0  0  0  0  0  0  0  0  0
    5.2805   -3.2249    0.0000 C   0  0  0  0  0  0  0  0  0  0  0  0
  1  2  1  0  0  0  0
  2  3  1  0  0  0  0
  3  4  2  0  0  0  0
  5  4  1  0  0  0  0
  5  6  2  0  0  0  0
  6  7  1  0  0  0  0
  7  8  2  0  0  0  0
  7  9  1  0  0  0  0
  9 10  1  0  0  0  0
 10 11  2  0  0  0  0
 11 12  1  0  0  0  0
 12 13  2  0  0  0  0
 13 14  1  0  0  0  0
 14 15  2  0  0  0  0
  6 15  1  0  0  0  0
 10 15  1  0  0  0  0
  4 16  1  0  0  0  0
 16 17  2  0  0  0  0
 17 18  1  0  0  0  0
 18 19  2  0  0  0  0
 19 20  1  0  0  0  0
 20 21  2  0  0  0  0
  2 21  1  0  0  0  0
 16 21  1  0  0  0  0
M  END
> <Value>
5.899998417198648

> <Relation>
<

> <SourceURI>
mol:CHEMBL1516890

$$$$

Generated by Molecular Materials Informatics

 23 26  0  0  0  0  0  0  0  0999 V2000
    2.7354   -0.5361    0.0000 S   0  0  0  0  0  0  0  0  0  0  0  0
   -2.7452    1.2421    0.0000 O   0  0  0  0  0  0  0  0  0  0  0  0
   -2.7452    3.6692    0.0000 O   0  0  0  0  0  0  0  0  0  0  0  0
    4.2607    3.0330    0.0000 O   0  0  0  0  0  0  0  0  0  0  0  0
    4.8127   -2.2183    0.0000 O   0  0  0  0  0  0  0  0  0  0  0  0
    2.5785    0.9555    0.0000 N   0  0  0  0  0  0  0  0  0  0  0  0
    4.9525    0.4510    0.0000 N   0  0  0  0  0  0  0  0  0  0  0  0
    3.9488    1.5657    0.0000 C   0  0  0  0  0  0  0  0  0  0  0  0
    1.2796    1.7055    0.0000 C   0  0  0  0  0  0  0  0  0  0  0  0
    4.2025   -0.8481    0.0000 C   0  0  0  0  0  0  0  0  0  0  0  0
   -1.3186    1.7055    0.0000 C   0  0  0  0  0  0  0  0  0  0  0  0
   -0.0195    0.9555    0.0000 C   0  0  0  0  0  0  0  0  0  0  0  0
   -1.3186    3.2055    0.0000 C   0  0  0  0  0  0  0  0  0  0  0  0
    1.2796    3.2055    0.0000 C   0  0  0  0  0  0  0  0  0  0  0  0
    6.4443    0.6077    0.0000 C   0  0  0  0  0  0  0  0  0  0  0  0
   -0.0195    3.9555    0.0000 C   0  0  0  0  0  0  0  0  0  0  0  0
    7.3259   -0.6057    0.0000 C   0  0  0  0  0  0  0  0  0  0  0  0
   -3.6268    2.4555    0.0000 C   0  0  0  0  0  0  0  0  0  0  0  0
    8.8178   -0.4490    0.0000 C   0  0  0  0  0  0  0  0  0  0  0  0
    6.7159   -1.9761    0.0000 C   0  0  0  0  0  0  0  0  0  0  0  0
    9.6994   -1.6625    0.0000 C   0  0  0  0  0  0  0  0  0  0  0  0
    7.5976   -3.1895    0.0000 C   0  0  0  0  0  0  0  0  0  0  0  0
    9.0894   -3.0328    0.0000 C   0  0  0  0  0  0  0  0  0  0  0  0
  1  6  1  0  0  0  0
  1 10  1  0  0  0  0
  2 11  1  0  0  0  0
  2 18  1  0  0  0  0
  3 13  1  0  0  0  0
  3 18  1  0  0  0  0
  4  8  2  0  0  0  0
  5 10  2  0  0  0  0
  6  8  1  0  0  0  0
  6  9  1  0  0  0  0
  7  8  1  0  0  0  0
  7 10  1  0  0  0  0
  7 15  1  0  0  0  0
  9 12  1  0  0  0  0
  9 14  2  0  0  0  0
 11 12  2  0  0  0  0
 11 13  1  0  0  0  0
 13 16  2  0  0  0  0
 14 16  1  0  0  0  0
 15 17  1  0  0  0  0
 17 19  2  0  0  0  0
 17 20  1  0  0  0  0
 19 21  1  0  0  0  0
 20 22  2  0  0  0  0
 21 23  2  0  0  0  0
 22 23  1  0  0  0  0
M  END
> <Value>
5.499999678657065

> <Relation>
=

> <SourceURI>
mol:CHEMBL1984632

$$$$

Generated by Molecular Materials Informatics

 24 27  0  0  0  0  0  0  0  0999 V2000
   -4.6828    2.7398    0.0000 Cl  0  0  0  0  0  0  0  0  0  0  0  0
   -0.2811    1.8043    0.0000 N   0  0  0  0  0  0  0  0  0  0  0  0
   -0.8213   -3.1640    0.0000 N   0  0  0  0  0  0  0  0  0  0  0  0
   -2.2118    3.5427    0.0000 N   0  0  0  0  0  0  0  0  0  0  0  0
    1.9043   -3.4506    0.0000 N   0  0  0  0  0  0  0  0  0  0  0  0
    0.2591    4.3456    0.0000 N   0  0  0  0  0  0  0  0  0  0  0  0
   -1.5951   10.0520    0.0000 N   0  0  0  0  0  0  0  0  0  0  0  0
   -0.8213   -0.7371    0.0000 C   0  0  0  0  0  0  0  0  0  0  0  0
    0.6053   -1.2006    0.0000 C   0  0  0  0  0  0  0  0  0  0  0  0
   -1.2849    0.6896    0.0000 C   0  0  0  0  0  0  0  0  0  0  0  0
    0.6053   -2.7006    0.0000 C   0  0  0  0  0  0  0  0  0  0  0  0
   -1.7029   -1.9506    0.0000 C   0  0  0  0  0  0  0  0  0  0  0  0
   -0.7448    3.2309    0.0000 C   0  0  0  0  0  0  0  0  0  0  0  0
   -2.7520    1.0014    0.0000 C   0  0  0  0  0  0  0  0  0  0  0  0
   -3.2157    2.4280    0.0000 C   0  0  0  0  0  0  0  0  0  0  0  0
    1.9043   -0.4506    0.0000 C   0  0  0  0  0  0  0  0  0  0  0  0
   -0.2046    5.7722    0.0000 C   0  0  0  0  0  0  0  0  0  0  0  0
    3.2033   -1.2006    0.0000 C   0  0  0  0  0  0  0  0  0  0  0  0
    3.2033   -2.7006    0.0000 C   0  0  0  0  0  0  0  0  0  0  0  0
   -1.6717    6.0840    0.0000 C   0  0  0  0  0  0  0  0  0  0  0  0
    0.7993    6.8869    0.0000 C   0  0  0  0  0  0  0  0  0  0  0  0
   -1.1317    8.6253    0.0000 C   0  0  0  0  0  0  0  0  0  0  0  0
   -2.1353    7.5105    0.0000 C   0  0  0  0  0  0  0  0  0  0  0  0
    0.3356    8.3134    0.0000 C   0  0  0  0  0  0  0  0  0  0  0  0
  1 15  1  0  0  0  0
  2 10  2  0  0  0  0
  2 13  1  0  0  0  0
  3 11  1  0  0  0  0
  3 12  1  0  0  0  0
  4 13  2  0  0  0  0
  4 15  1  0  0  0  0
  5 11  2  0  0  0  0
  5 19  1  0  0  0  0
  6 13  1  0  0  0  0
  6 17  1  0  0  0  0
  7 22  1  0  0  0  0
  8  9  1  0  0  0  0
  8 10  1  0  0  0  0
  8 12  2  0  0  0  0
  9 11  1  0  0  0  0
  9 16  2  0  0  0  0
 10 14  1  0  0  0  0
 14 15  2  0  0  0  0
 16 18  1  0  0  0  0
 17 20  1  0  0  0  0
 17 21  1  0  0  0  0
 18 19  2  0  0  0  0
 20 23  1  0  0  0  0
 21 24  1  0  0  0  0
 22 23  1  0  0  0  0
 22 24  1  0  0  0  0
M  END
> <Value>
7.299988937677887

> <Error>
0.0

> <Relation>
=

> <SourceURI>
mol:CHEMBL1973720

$$$$

Generated by Molecular Materials Informatics

 24 27  0  0  0  0  0  0  0  0999 V2000
   -4.6978    2.8801    0.0000 Cl  0  0  0  0  0  0  0  0  0  0  0  0
   -0.8364   -3.0237    0.0000 N   0  0  0  0  0  0  0  0  0  0  0  0
    1.8893   -3.3102    0.0000 N   0  0  0  0  0  0  0  0  0  0  0  0
   -2.2269    3.6831    0.0000 N   0  0  0  0  0  0  0  0  0  0  0  0
    0.2440    4.4860    0.0000 N   0  0  0  0  0  0  0  0  0  0  0  0
   -0.8364   -0.5968    0.0000 C   0  0  0  0  0  0  0  0  0  0  0  0
    0.5902   -1.0602    0.0000 C   0  0  0  0  0  0  0  0  0  0  0  0
   -1.3000    0.8300    0.0000 C   0  0  0  0  0  0  0  0  0  0  0  0
    0.5902   -2.5602    0.0000 C   0  0  0  0  0  0  0  0  0  0  0  0
   -1.7180   -1.8102    0.0000 C   0  0  0  0  0  0  0  0  0  0  0  0
   -0.2962    1.9447    0.0000 C   0  0  0  0  0  0  0  0  0  0  0  0
   -2.7671    1.1418    0.0000 C   0  0  0  0  0  0  0  0  0  0  0  0
   -0.7598    3.3712    0.0000 C   0  0  0  0  0  0  0  0  0  0  0  0
    1.8893   -0.3102    0.0000 C   0  0  0  0  0  0  0  0  0  0  0  0
   -3.2307    2.5683    0.0000 C   0  0  0  0  0  0  0  0  0  0  0  0
    3.1882   -1.0602    0.0000 C   0  0  0  0  0  0  0  0  0  0  0  0
    3.1882   -2.5602    0.0000 C   0  0  0  0  0  0  0  0  0  0  0  0
   -0.2196    5.9125    0.0000 C   0  0  0  0  0  0  0  0  0  0  0  0
    0.7842    7.0272    0.0000 C   0  0  0  0  0  0  0  0  0  0  0  0
    0.3206    8.4538    0.0000 C   0  0  0  0  0  0  0  0  0  0  0  0
    2.2513    6.7154    0.0000 C   0  0  0  0  0  0  0  0  0  0  0  0
    1.3244    9.5685    0.0000 C   0  0  0  0  0  0  0  0  0  0  0  0
    3.2551    7.8302    0.0000 C   0  0  0  0  0  0  0  0  0  0  0  0
    2.7915    9.2567    0.0000 C   0  0  0  0  0  0  0  0  0  0  0  0
  1 15  1  0  0  0  0
  2  9  1  0  0  0  0
  2 10  1  0  0  0  0
  3  9  2  0  0  0  0
  3 17  1  0  0  0  0
  4 13  2  0  0  0  0
  4 15  1  0  0  0  0
  5 13  1  0  0  0  0
  5 18  1  0  0  0  0
  6  7  1  0  0  0  0
  6  8  1  0  0  0  0
  6 10  2  0  0  0  0
  7  9  1  0  0  0  0
  7 14  2  0  0  0  0
  8 11  2  0  0  0  0
  8 12  1  0  0  0  0
 11 13  1  0  0  0  0
 12 15  2  0  0  0  0
 14 16  1  0  0  0  0
 16 17  2  0  0  0  0
 18 19  1  0  0  0  0
 19 20  2  0  0  0  0
 19 21  1  0  0  0  0
 20 22  1  0  0  0  0
 21 23  2  0  0  0  0
 22 24  2  0  0  0  0
 23 24  1  0  0  0  0
M  END
> <Value>
7.199970640755866

> <Relation>
=

> <SourceURI>
mol:CHEMBL1969588

$$$$

Generated by Molecular Materials Informatics

 10 11  0  0  0  0  0  0  0  0999 V2000
   -1.4918   -1.1385    0.0000 S   0  0  0  0  0  0  0  0  0  0  0  0
    1.2339   -1.4251    0.0000 N   0  0  0  0  0  0  0  0  0  0  0  0
    2.5329    0.8250    0.0000 N   0  0  0  0  0  0  0  0  0  0  0  0
    1.2339    3.0751    0.0000 N   0  0  0  0  0  0  0  0  0  0  0  0
   -0.0652    0.8250    0.0000 C   0  0  0  0  0  0  0  0  0  0  0  0
   -0.0652   -0.6751    0.0000 C   0  0  0  0  0  0  0  0  0  0  0  0
    1.2339    1.5750    0.0000 C   0  0  0  0  0  0  0  0  0  0  0  0
   -1.4918    1.2885    0.0000 C   0  0  0  0  0  0  0  0  0  0  0  0
   -2.3735    0.0750    0.0000 C   0  0  0  0  0  0  0  0  0  0  0  0
    2.5329   -0.6751    0.0000 C   0  0  0  0  0  0  0  0  0  0  0  0
  1  6  1  0  0  0  0
  1  9  1  0  0  0  0
  2  6  1  0  0  0  0
  2 10  2  0  0  0  0
  3  7  2  0  0  0  0
  3 10  1  0  0  0  0
  4  7  1  0  0  0  0
  5  6  2  0  0  0  0
  5  7  1  0  0  0  0
  5  8  1  0  0  0  0
  8  9  2  0  0  0  0
M  END
> <Value>
4.800000052738446

> <Relation>
=

> <SourceURI>
mol:CHEMBL1972934

$$$$

Generated by Molecular Materials Informatics

 32 37  0  0  0  0  0  0  0  0999 V2000
   -2.2222    1.8000    0.0000 O   0  0  0  0  0  0  0  0  0  0  0  0
    2.7996    0.1684    0.0000 O   0  0  0  0  0  0  0  0  0  0  0  0
    0.4180    1.3819    0.0000 N   0  0  0  0  0  0  0  0  0  0  0  0
   -2.0655   -2.9551    0.0000 N   0  0  0  0  0  0  0  0  0  0  0  0
   -4.6493   -3.2267    0.0000 N   0  0  0  0  0  0  0  0  0  0  0  0
    0.8814   -4.8987    0.0000 N   0  0  0  0  0  0  0  0  0  0  0  0
   -3.1222   -5.3285    0.0000 N   0  0  0  0  0  0  0  0  0  0  0  0
   -2.8086   -8.3121    0.0000 N   0  0  0  0  0  0  0  0  0  0  0  0
   -1.0088   -0.5816    0.0000 C   0  0  0  0  0  0  0  0  0  0  0  0
    0.4180   -1.0450    0.0000 C   0  0  0  0  0  0  0  0  0  0  0  0
   -2.2222   -1.4632    0.0000 C   0  0  0  0  0  0  0  0  0  0  0  0
    0.8814   -2.4718    0.0000 C   0  0  0  0  0  0  0  0  0  0  0  0
   -1.0088    0.9184    0.0000 C   0  0  0  0  0  0  0  0  0  0  0  0
   -3.5926   -0.8532    0.0000 C   0  0  0  0  0  0  0  0  0  0  0  0
    1.2996    0.1684    0.0000 C   0  0  0  0  0  0  0  0  0  0  0  0
    2.3080   -2.9352    0.0000 C   0  0  0  0  0  0  0  0  0  0  0  0
   -4.8060   -1.7349    0.0000 C   0  0  0  0  0  0  0  0  0  0  0  0
   -3.2790   -3.8367    0.0000 C   0  0  0  0  0  0  0  0  0  0  0  0
    2.3080   -4.4352    0.0000 C   0  0  0  0  0  0  0  0  0  0  0  0
   -0.0002   -3.6852    0.0000 C   0  0  0  0  0  0  0  0  0  0  0  0
   -3.7493    0.6386    0.0000 C   0  0  0  0  0  0  0  0  0  0  0  0
    3.6070   -2.1852    0.0000 C   0  0  0  0  0  0  0  0  0  0  0  0
   -6.1764   -1.1247    0.0000 C   0  0  0  0  0  0  0  0  0  0  0  0
    3.6070   -5.1852    0.0000 C   0  0  0  0  0  0  0  0  0  0  0  0
   -5.1197    1.2488    0.0000 C   0  0  0  0  0  0  0  0  0  0  0  0
   -6.3331    0.3670    0.0000 C   0  0  0  0  0  0  0  0  0  0  0  0
    4.9061   -2.9352    0.0000 C   0  0  0  0  0  0  0  0  0  0  0  0
   -1.7519   -5.9387    0.0000 C   0  0  0  0  0  0  0  0  0  0  0  0
   -4.3357   -6.2101    0.0000 C   0  0  0  0  0  0  0  0  0  0  0  0
    4.9061   -4.4352    0.0000 C   0  0  0  0  0  0  0  0  0  0  0  0
   -1.5951   -7.4303    0.0000 C   0  0  0  0  0  0  0  0  0  0  0  0
   -4.1790   -7.7020    0.0000 C   0  0  0  0  0  0  0  0  0  0  0  0
  1 13  2  0  0  0  0
  2 15  2  0  0  0  0
  3 13  1  0  0  0  0
  3 15  1  0  0  0  0
  4 11  2  0  0  0  0
  4 18  1  0  0  0  0
  5 17  1  0  0  0  0
  5 18  2  0  0  0  0
  6 19  1  0  0  0  0
  6 20  1  0  0  0  0
  7 18  1  0  0  0  0
  7 28  1  0  0  0  0
  7 29  1  0  0  0  0
  8 31  1  0  0  0  0
  8 32  1  0  0  0  0
  9 10  2  0  0  0  0
  9 11  1  0  0  0  0
  9 13  1  0  0  0  0
 10 12  1  0  0  0  0
 10 15  1  0  0  0  0
 11 14  1  0  0  0  0
 12 16  1  0  0  0  0
 12 20  2  0  0  0  0
 14 17  1  0  0  0  0
 14 21  2  0  0  0  0
 16 19  1  0  0  0  0
 16 22  2  0  0  0  0
 17 23  2  0  0  0  0
 19 24  2  0  0  0  0
 21 25  1  0  0  0  0
 22 27  1  0  0  0  0
 23 26  1  0  0  0  0
 24 30  1  0  0  0  0
 25 26  2  0  0  0  0
 27 30  2  0  0  0  0
 28 31  1  0  0  0  0
 29 32  1  0  0  0  0
M  END
> <Value>
6.199998172182031

> <Relation>
=

> <SourceURI>
mol:CHEMBL1996510

$$$$

Generated by Molecular Materials Informatics

 32 36  0  0  0  0  0  0  0  0999 V2000
    0.9656   -0.0416    0.0000 Cl  0  0  0  0  0  0  0  0  0  0  0  0
    0.9656   -3.0417    0.0000 N   0  0  0  0  0  0  0  0  0  0  0  0
    3.5637   -3.0417    0.0000 N   0  0  0  0  0  0  0  0  0  0  0  0
   11.3579   -0.0416    0.0000 N   0  0  0  0  0  0  0  0  0  0  0  0
    6.1617   -3.0417    0.0000 N   0  0  0  0  0  0  0  0  0  0  0  0
    4.8626   -0.7916    0.0000 N   0  0  0  0  0  0  0  0  0  0  0  0
   -4.3581   -0.3282    0.0000 N   0  0  0  0  0  0  0  0  0  0  0  0
   -5.2397   -1.5416    0.0000 N   0  0  0  0  0  0  0  0  0  0  0  0
   13.9559    1.4583    0.0000 N   0  0  0  0  0  0  0  0  0  0  0  0
    2.2647   -2.2916    0.0000 C   0  0  0  0  0  0  0  0  0  0  0  0
   -2.9315   -2.2916    0.0000 C   0  0  0  0  0  0  0  0  0  0  0  0
   -0.3333   -2.2916    0.0000 C   0  0  0  0  0  0  0  0  0  0  0  0
   -2.9315   -0.7916    0.0000 C   0  0  0  0  0  0  0  0  0  0  0  0
    4.8626   -2.2916    0.0000 C   0  0  0  0  0  0  0  0  0  0  0  0
    2.2647   -0.7916    0.0000 C   0  0  0  0  0  0  0  0  0  0  0  0
   -1.6324   -3.0417    0.0000 C   0  0  0  0  0  0  0  0  0  0  0  0
   10.0588   -0.7916    0.0000 C   0  0  0  0  0  0  0  0  0  0  0  0
    7.4608   -2.2916    0.0000 C   0  0  0  0  0  0  0  0  0  0  0  0
   -0.3333   -0.7916    0.0000 C   0  0  0  0  0  0  0  0  0  0  0  0
   -1.6324   -0.0416    0.0000 C   0  0  0  0  0  0  0  0  0  0  0  0
   -4.3581   -2.7553    0.0000 C   0  0  0  0  0  0  0  0  0  0  0  0
    3.5637   -0.0416    0.0000 C   0  0  0  0  0  0  0  0  0  0  0  0
   10.0588   -2.2916    0.0000 C   0  0  0  0  0  0  0  0  0  0  0  0
    8.7599   -0.0416    0.0000 C   0  0  0  0  0  0  0  0  0  0  0  0
    8.7599   -3.0417    0.0000 C   0  0  0  0  0  0  0  0  0  0  0  0
    7.4608   -0.7916    0.0000 C   0  0  0  0  0  0  0  0  0  0  0  0
   11.3579    1.4583    0.0000 C   0  0  0  0  0  0  0  0  0  0  0  0
   12.6570   -0.7916    0.0000 C   0  0  0  0  0  0  0  0  0  0  0  0
   12.6570    2.2083    0.0000 C   0  0  0  0  0  0  0  0  0  0  0  0
   13.9559   -0.0416    0.0000 C   0  0  0  0  0  0  0  0  0  0  0  0
   15.2550    2.2083    0.0000 C   0  0  0  0  0  0  0  0  0  0  0  0
   15.2550    3.7083    0.0000 C   0  0  0  0  0  0  0  0  0  0  0  0
  1 15  1  0  0  0  0
  2 10  1  0  0  0  0
  2 12  1  0  0  0  0
  3 10  2  0  0  0  0
  3 14  1  0  0  0  0
  4 17  1  0  0  0  0
  4 27  1  0  0  0  0
  4 28  1  0  0  0  0
  5 14  1  0  0  0  0
  5 18  1  0  0  0  0
  6 14  2  0  0  0  0
  6 22  1  0  0  0  0
  7  8  1  0  0  0  0
  7 13  1  0  0  0  0
  8 21  2  0  0  0  0
  9 29  1  0  0  0  0
  9 30  1  0  0  0  0
  9 31  1  0  0  0  0
 10 15  1  0  0  0  0
 11 13  1  0  0  0  0
 11 16  2  0  0  0  0
 11 21  1  0  0  0  0
 12 16  1  0  0  0  0
 12 19  2  0  0  0  0
 13 20  2  0  0  0  0
 15 22  2  0  0  0  0
 17 23  2  0  0  0  0
 17 24  1  0  0  0  0
 18 25  2  0  0  0  0
 18 26  1  0  0  0  0
 19 20  1  0  0  0  0
 23 25  1  0  0  0  0
 24 26  2  0  0  0  0
 27 29  1  0  0  0  0
 28 30  1  0  0  0  0
 31 32  1  0  0  0  0
M  END
> <Value>
6.699991797446187

> <Relation>
=

> <SourceURI>
mol:CHEMBL1967998

$$$$

Generated by Molecular Materials Informatics

 25 27  0  0  0  0  0  0  0  0999 V2000
   -3.5596    9.2062    0.0000 S   0  0  0  0  0  0  0  0  0  0  0  0
    2.9355    2.4562    0.0000 O   0  0  0  0  0  0  0  0  0  0  0  0
   -3.5596   10.7062    0.0000 O   0  0  0  0  0  0  0  0  0  0  0  0
   -5.0596    9.2062    0.0000 O   0  0  0  0  0  0  0  0  0  0  0  0
    0.3375    2.4562    0.0000 N   0  0  0  0  0  0  0  0  0  0  0  0
   -0.9616    4.7062    0.0000 N   0  0  0  0  0  0  0  0  0  0  0  0
   -2.2605    2.4562    0.0000 N   0  0  0  0  0  0  0  0  0  0  0  0
    0.3375    0.9562    0.0000 C   0  0  0  0  0  0  0  0  0  0  0  0
    1.6366    0.2063    0.0000 C   0  0  0  0  0  0  0  0  0  0  0  0
   -3.5596    7.7062    0.0000 C   0  0  0  0  0  0  0  0  0  0  0  0
   -0.9616    3.2063    0.0000 C   0  0  0  0  0  0  0  0  0  0  0  0
   -2.2605    5.4562    0.0000 C   0  0  0  0  0  0  0  0  0  0  0  0
    2.9355    0.9562    0.0000 C   0  0  0  0  0  0  0  0  0  0  0  0
   -2.2605    6.9563    0.0000 C   0  0  0  0  0  0  0  0  0  0  0  0
   -0.9616    0.2063    0.0000 C   0  0  0  0  0  0  0  0  0  0  0  0
    1.6366   -1.2937    0.0000 C   0  0  0  0  0  0  0  0  0  0  0  0
   -4.8587    6.9563    0.0000 C   0  0  0  0  0  0  0  0  0  0  0  0
   -3.5596    4.7062    0.0000 C   0  0  0  0  0  0  0  0  0  0  0  0
   -2.2605    0.9562    0.0000 C   0  0  0  0  0  0  0  0  0  0  0  0
    4.2346    0.2063    0.0000 C   0  0  0  0  0  0  0  0  0  0  0  0
   -4.8587    5.4562    0.0000 C   0  0  0  0  0  0  0  0  0  0  0  0
    2.9355   -2.0437    0.0000 C   0  0  0  0  0  0  0  0  0  0  0  0
    4.2346   -1.2937    0.0000 C   0  0  0  0  0  0  0  0  0  0  0  0
   -2.0596    9.2062    0.0000 C   0  0  0  0  0  0  0  0  0  0  0  0
    4.2346    3.2063    0.0000 C   0  0  0  0  0  0  0  0  0  0  0  0
  1  3  2  0  0  0  0
  1  4  2  0  0  0  0
  1 10  1  0  0  0  0
  1 24  1  0  0  0  0
  2 13  1  0  0  0  0
  2 25  1  0  0  0  0
  5  8  1  0  0  0  0
  5 11  2  0  0  0  0
  6 11  1  0  0  0  0
  6 12  1  0  0  0  0
  7 11  1  0  0  0  0
  7 19  2  0  0  0  0
  8  9  1  0  0  0  0
  8 15  2  0  0  0  0
  9 13  1  0  0  0  0
  9 16  2  0  0  0  0
 10 14  2  0  0  0  0
 10 17  1  0  0  0  0
 12 14  1  0  0  0  0
 12 18  2  0  0  0  0
 13 20  2  0  0  0  0
 15 19  1  0  0  0  0
 16 22  1  0  0  0  0
 17 21  2  0  0  0  0
 18 21  1  0  0  0  0
 20 23  1  0  0  0  0
 22 23  2  0  0  0  0
M  END
> <Value>
5.300000202445418

> <Relation>
<

> <SourceURI>
mol:CHEMBL1975903

$$$$

Generated by Molecular Materials Informatics

 25 27  0  0  0  0  0  0  0  0999 V2000
    3.0084   -2.5786    0.0000 C   0  0  0  0  0  0  0  0  0  0  0  0
    3.8295   -3.8314    0.0000 C   0  0  0  0  0  0  0  0  0  0  0  0
    5.1936   -1.1607    0.0000 C   0  0  0  0  0  0  0  0  0  0  0  0
    3.6940   -1.2363    0.0000 C   0  0  0  0  0  0  0  0  0  0  0  0
    6.0076   -2.4206    0.0000 C   0  0  0  0  0  0  0  0  0  0  0  0
    5.3290   -3.7560    0.0000 C   0  0  0  0  0  0  0  0  0  0  0  0
    6.3881   -4.8149    0.0000 N   0  0  0  0  0  0  0  0  0  0  0  0
    7.7235   -4.1363    0.0000 C   0  0  0  0  0  0  0  0  0  0  0  0
    7.4911   -2.6528    0.0000 N   0  0  0  0  0  0  0  0  0  0  0  0
    9.0587   -4.8149    0.0000 N   0  0  0  0  0  0  0  0  0  0  0  0
   10.3623   -4.0671    0.0000 C   0  0  0  0  0  0  0  0  0  0  0  0
   10.3623   -2.5646    0.0000 O   0  0  0  0  0  0  0  0  0  0  0  0
   11.6590   -4.8149    0.0000 C   0  0  0  0  0  0  0  0  0  0  0  0
   11.6590   -6.3173    0.0000 C   0  0  0  0  0  0  0  0  0  0  0  0
   12.9625   -7.0651    0.0000 C   0  0  0  0  0  0  0  0  0  0  0  0
   14.2590   -6.3173    0.0000 C   0  0  0  0  0  0  0  0  0  0  0  0
   14.2590   -4.8149    0.0000 C   0  0  0  0  0  0  0  0  0  0  0  0
   12.9625   -4.0671    0.0000 C   0  0  0  0  0  0  0  0  0  0  0  0
   15.5555   -4.0671    0.0000 N   0  3  0  0  0  0  0  0  0  0  0  0
   15.5555   -2.5646    0.0000 O   0  0  0  0  0  0  0  0  0  0  0  0
   16.8593   -4.8149    0.0000 O   0  5  0  0  0  0  0  0  0  0  0  0
    6.1534   -6.2917    0.0000 C   0  0  0  0  0  0  0  0  0  0  0  0
    4.7571   -6.8270    0.0000 C   0  0  0  0  0  0  0  0  0  0  0  0
    4.5222   -8.3038    0.0000 C   0  0  0  0  0  0  0  0  0  0  0  0
    3.1259   -8.8390    0.0000 O   0  0  0  0  0  0  0  0  0  0  0  0
  3  4  1  0  0  0  0
  4  1  2  0  0  0  0
  5  6  1  0  0  0  0
  6  7  1  0  0  0  0
  7  8  1  0  0  0  0
  8  9  2  0  0  0  0
  9  5  1  0  0  0  0
  8 10  1  0  0  0  0
 10 11  1  0  0  0  0
 11 12  2  0  0  0  0
 11 13  1  0  0  0  0
 13 14  2  0  0  0  0
 14 15  1  0  0  0  0
 15 16  2  0  0  0  0
 16 17  1  0  0  0  0
 17 18  2  0  0  0  0
 18 13  1  0  0  0  0
 19 20  2  0  0  0  0
 19 21  1  0  0  0  0
 17 19  1  0  0  0  0
  7 22  1  0  0  0  0
  1  2  1  0  0  0  0
 22 23  1  0  0  0  0
  2  6  2  0  0  0  0
 23 24  1  0  0  0  0
  5  3  2  0  0  0  0
 24 25  1  0  0  0  0
M  CHG  2  19   1  21  -1
M  END
> <Value>
5.899998417198648

> <Relation>
<

> <SourceURI>
mol:CHEMBL210887

$$$$

Generated by Molecular Materials Informatics

 27 30  0  0  0  0  0  0  0  0999 V2000
    5.7003    2.3849    0.0000 Cl  0  0  0  0  0  0  0  0  0  0  0  0
    6.7806   -2.6976    0.0000 Cl  0  0  0  0  0  0  0  0  0  0  0  0
   -3.1359   -2.3858    0.0000 O   0  0  0  0  0  0  0  0  0  0  0  0
   -4.7563  -10.0098    0.0000 O   0  5  0  0  0  0  0  0  0  0  0  0
   -6.6870   -8.2713    0.0000 O   0  0  0  0  0  0  0  0  0  0  0  0
    2.5561    1.5282    0.0000 N   0  0  0  0  0  0  0  0  0  0  0  0
   -0.6648   -1.5829    0.0000 N   0  0  0  0  0  0  0  0  0  0  0  0
   -1.2050   -4.1244    0.0000 N   0  0  0  0  0  0  0  0  0  0  0  0
   -5.2199   -8.5831    0.0000 N   0  3  0  0  0  0  0  0  0  0  0  0
    3.3061   -0.7802    0.0000 C   0  0  0  0  0  0  0  0  0  0  0  0
    1.8061   -0.7802    0.0000 C   0  0  0  0  0  0  0  0  0  0  0  0
    3.7695    0.6464    0.0000 C   0  0  0  0  0  0  0  0  0  0  0  0
    1.3424    0.6464    0.0000 C   0  0  0  0  0  0  0  0  0  0  0  0
    5.2368    0.9584    0.0000 C   0  0  0  0  0  0  0  0  0  0  0  0
    0.8023   -1.8949    0.0000 C   0  0  0  0  0  0  0  0  0  0  0  0
    4.3097   -1.8949    0.0000 C   0  0  0  0  0  0  0  0  0  0  0  0
   -0.1248    0.9584    0.0000 C   0  0  0  0  0  0  0  0  0  0  0  0
    5.7770   -1.5829    0.0000 C   0  0  0  0  0  0  0  0  0  0  0  0
    6.2404   -0.1564    0.0000 C   0  0  0  0  0  0  0  0  0  0  0  0
   -1.1285   -0.1564    0.0000 C   0  0  0  0  0  0  0  0  0  0  0  0
   -1.6687   -2.6976    0.0000 C   0  0  0  0  0  0  0  0  0  0  0  0
   -2.2088   -5.2391    0.0000 C   0  0  0  0  0  0  0  0  0  0  0  0
   -4.2161   -7.4684    0.0000 C   0  0  0  0  0  0  0  0  0  0  0  0
   -1.7452   -6.6656    0.0000 C   0  0  0  0  0  0  0  0  0  0  0  0
   -3.6759   -4.9271    0.0000 C   0  0  0  0  0  0  0  0  0  0  0  0
   -2.7490   -7.7804    0.0000 C   0  0  0  0  0  0  0  0  0  0  0  0
   -4.6797   -6.0418    0.0000 C   0  0  0  0  0  0  0  0  0  0  0  0
  1 14  1  0  0  0  0
  2 18  1  0  0  0  0
  3 21  2  0  0  0  0
  4  9  1  0  0  0  0
  5  9  2  0  0  0  0
  6 12  1  0  0  0  0
  6 13  1  0  0  0  0
  7 15  1  0  0  0  0
  7 20  1  0  0  0  0
  7 21  1  0  0  0  0
  8 21  1  0  0  0  0
  8 22  1  0  0  0  0
  9 23  1  0  0  0  0
 10 11  1  0  0  0  0
 10 12  1  0  0  0  0
 10 16  2  0  0  0  0
 11 13  2  0  0  0  0
 11 15  1  0  0  0  0
 12 14  2  0  0  0  0
 13 17  1  0  0  0  0
 14 19  1  0  0  0  0
 16 18  1  0  0  0  0
 17 20  1  0  0  0  0
 18 19  2  0  0  0  0
 22 24  2  0  0  0  0
 22 25  1  0  0  0  0
 23 26  2  0  0  0  0
 23 27  1  0  0  0  0
 24 26  1  0  0  0  0
 25 27  2  0  0  0  0
M  CHG  2   4  -1   9   1
M  END
> <Value>
5.300000202445418

> <Relation>
<

> <SourceURI>
mol:CHEMBL1976196

$$$$

Generated by Molecular Materials Informatics

 27 30  0  0  0  0  0  0  0  0999 V2000
    6.0318   -1.9541    0.0000 O   0  0  0  0  0  0  0  0  0  0  0  0
   -3.1889    0.0093    0.0000 N   0  0  0  0  0  0  0  0  0  0  0  0
   -4.0706   -1.2041    0.0000 N   0  0  0  0  0  0  0  0  0  0  0  0
    3.4338   -4.9542    0.0000 N   0  0  0  0  0  0  0  0  0  0  0  0
    8.6300   -0.4541    0.0000 N   0  0  0  0  0  0  0  0  0  0  0  0
   -1.7624   -1.9541    0.0000 C   0  0  0  0  0  0  0  0  0  0  0  0
   -1.7624   -0.4541    0.0000 C   0  0  0  0  0  0  0  0  0  0  0  0
    0.8358   -1.9541    0.0000 C   0  0  0  0  0  0  0  0  0  0  0  0
   -0.4633   -2.7041    0.0000 C   0  0  0  0  0  0  0  0  0  0  0  0
   -3.1889   -2.4178    0.0000 C   0  0  0  0  0  0  0  0  0  0  0  0
    2.1347   -2.7041    0.0000 C   0  0  0  0  0  0  0  0  0  0  0  0
   -0.4633    0.2959    0.0000 C   0  0  0  0  0  0  0  0  0  0  0  0
    0.8358   -0.4541    0.0000 C   0  0  0  0  0  0  0  0  0  0  0  0
    3.4338   -1.9541    0.0000 C   0  0  0  0  0  0  0  0  0  0  0  0
    4.7329   -2.7041    0.0000 C   0  0  0  0  0  0  0  0  0  0  0  0
    2.1347   -4.2041    0.0000 C   0  0  0  0  0  0  0  0  0  0  0  0
    4.7329   -4.2041    0.0000 C   0  0  0  0  0  0  0  0  0  0  0  0
   -3.6524   -3.8443    0.0000 C   0  0  0  0  0  0  0  0  0  0  0  0
    6.0318   -0.4541    0.0000 C   0  0  0  0  0  0  0  0  0  0  0  0
    7.3309    0.2959    0.0000 C   0  0  0  0  0  0  0  0  0  0  0  0
    8.6300    2.5458    0.0000 C   0  0  0  0  0  0  0  0  0  0  0  0
    7.3309    1.7958    0.0000 C   0  0  0  0  0  0  0  0  0  0  0  0
    8.6300    4.0458    0.0000 C   0  0  0  0  0  0  0  0  0  0  0  0
    9.9291    1.7958    0.0000 C   0  0  0  0  0  0  0  0  0  0  0  0
    9.9291    4.7958    0.0000 C   0  0  0  0  0  0  0  0  0  0  0  0
   11.2280    2.5458    0.0000 C   0  0  0  0  0  0  0  0  0  0  0  0
   11.2280    4.0458    0.0000 C   0  0  0  0  0  0  0  0  0  0  0  0
  1 15  1  0  0  0  0
  1 19  1  0  0  0  0
  2  3  1  0  0  0  0
  2  7  1  0  0  0  0
  3 10  2  0  0  0  0
  4 16  1  0  0  0  0
  4 17  2  0  0  0  0
  5 20  1  0  0  0  0
  6  7  1  0  0  0  0
  6  9  2  0  0  0  0
  6 10  1  0  0  0  0
  7 12  2  0  0  0  0
  8  9  1  0  0  0  0
  8 11  1  0  0  0  0
  8 13  2  0  0  0  0
 10 18  1  0  0  0  0
 11 14  1  0  0  0  0
 11 16  2  0  0  0  0
 12 13  1  0  0  0  0
 14 15  2  0  0  0  0
 15 17  1  0  0  0  0
 19 20  1  0  0  0  0
 20 22  1  0  0  0  0
 21 22  1  0  0  0  0
 21 23  2  0  0  0  0
 21 24  1  0  0  0  0
 23 25  1  0  0  0  0
 24 26  2  0  0  0  0
 25 27  2  0  0  0  0
 26 27  1  0  0  0  0
M  END
> <Value>
6.699991797446187

> <Relation>
=

> <SourceURI>
mol:CHEMBL2002726

$$$$

Generated by Molecular Materials Informatics

 32 35  0  0  0  0  0  0  0  0999 V2000
   -0.5103    4.8276    0.0000 S   0  0  0  0  0  0  0  0  0  0  0  0
    1.1102   -5.2233    0.0000 F   0  0  0  0  0  0  0  0  0  0  0  0
    0.9162    7.3640    0.0000 O   0  0  0  0  0  0  0  0  0  0  0  0
    0.1064   -4.1088    0.0000 O   0  0  0  0  0  0  0  0  0  0  0  0
    3.5144    2.8640    0.0000 N   0  0  0  0  0  0  0  0  0  0  0  0
    2.2153    0.6140    0.0000 N   0  0  0  0  0  0  0  0  0  0  0  0
    3.5144    7.3640    0.0000 N   0  0  0  0  0  0  0  0  0  0  0  0
   -2.3645   -3.3058    0.0000 N   0  0  0  0  0  0  0  0  0  0  0  0
   -1.8243   -5.8471    0.0000 N   0  0  0  0  0  0  0  0  0  0  0  0
    0.9162    2.8640    0.0000 C   0  0  0  0  0  0  0  0  0  0  0  0
    0.9162    4.3640    0.0000 C   0  0  0  0  0  0  0  0  0  0  0  0
   -0.5103    2.4005    0.0000 C   0  0  0  0  0  0  0  0  0  0  0  0
    2.2153    5.1140    0.0000 C   0  0  0  0  0  0  0  0  0  0  0  0
    2.2153    2.1140    0.0000 C   0  0  0  0  0  0  0  0  0  0  0  0
   -0.9738    0.9740    0.0000 C   0  0  0  0  0  0  0  0  0  0  0  0
   -1.3920    3.6140    0.0000 C   0  0  0  0  0  0  0  0  0  0  0  0
    3.5144    4.3640    0.0000 C   0  0  0  0  0  0  0  0  0  0  0  0
    2.2153    6.6140    0.0000 C   0  0  0  0  0  0  0  0  0  0  0  0
    0.0298   -0.1408    0.0000 C   0  0  0  0  0  0  0  0  0  0  0  0
   -2.4411    0.6621    0.0000 C   0  0  0  0  0  0  0  0  0  0  0  0
   -1.9009   -1.8793    0.0000 C   0  0  0  0  0  0  0  0  0  0  0  0
   -0.4338   -1.5673    0.0000 C   0  0  0  0  0  0  0  0  0  0  0  0
   -2.9047   -0.7646    0.0000 C   0  0  0  0  0  0  0  0  0  0  0  0
   -0.8205   -6.9618    0.0000 C   0  0  0  0  0  0  0  0  0  0  0  0
   -1.3607   -4.4206    0.0000 C   0  0  0  0  0  0  0  0  0  0  0  0
    0.6466   -6.6500    0.0000 C   0  0  0  0  0  0  0  0  0  0  0  0
   -1.2842   -8.3884    0.0000 C   0  0  0  0  0  0  0  0  0  0  0  0
   -0.2803   -9.5031    0.0000 C   0  0  0  0  0  0  0  0  0  0  0  0
    1.6504   -7.7648    0.0000 C   0  0  0  0  0  0  0  0  0  0  0  0
    3.5144    8.8640    0.0000 C   0  0  0  0  0  0  0  0  0  0  0  0
    1.1868   -9.1913    0.0000 C   0  0  0  0  0  0  0  0  0  0  0  0
   -0.7440  -10.9297    0.0000 C   0  0  0  0  0  0  0  0  0  0  0  0
  1 11  1  0  0  0  0
  1 16  1  0  0  0  0
  2 26  1  0  0  0  0
  3 18  2  0  0  0  0
  4 25  2  0  0  0  0
  5 14  2  0  0  0  0
  5 17  1  0  0  0  0
  6 14  1  0  0  0  0
  7 18  1  0  0  0  0
  7 30  1  0  0  0  0
  8 21  1  0  0  0  0
  8 25  1  0  0  0  0
  9 24  1  0  0  0  0
  9 25  1  0  0  0  0
 10 11  2  0  0  0  0
 10 12  1  0  0  0  0
 10 14  1  0  0  0  0
 11 13  1  0  0  0  0
 12 15  1  0  0  0  0
 12 16  2  0  0  0  0
 13 17  2  0  0  0  0
 13 18  1  0  0  0  0
 15 19  2  0  0  0  0
 15 20  1  0  0  0  0
 19 22  1  0  0  0  0
 20 23  2  0  0  0  0
 21 22  2  0  0  0  0
 21 23  1  0  0  0  0
 24 26  1  0  0  0  0
 24 27  2  0  0  0  0
 26 29  2  0  0  0  0
 27 28  1  0  0  0  0
 28 31  2  0  0  0  0
 28 32  1  0  0  0  0
 29 31  1  0  0  0  0
M  END
> <Value>
5.899998417198648

> <Relation>
<

> <SourceURI>
mol:CHEMBL2005631

$$$$

Generated by Molecular Materials Informatics

 32 34  0  0  0  0  0  0  0  0999 V2000
   -8.5525    5.9137    0.0000 O   0  5  0  0  0  0  0  0  0  0  0  0
   -7.0525    5.9137    0.0000 N   0  3  0  0  0  0  0  0  0  0  0  0
   -6.3025    7.2128    0.0000 O   0  0  0  0  0  0  0  0  0  0  0  0
   -6.3025    4.6148    0.0000 C   0  0  0  0  0  0  0  0  0  0  0  0
   -7.0525    3.3158    0.0000 C   0  0  0  0  0  0  0  0  0  0  0  0
   -6.3025    2.0167    0.0000 C   0  0  0  0  0  0  0  0  0  0  0  0
   -4.8025    2.0167    0.0000 C   0  0  0  0  0  0  0  0  0  0  0  0
   -4.8025    4.6148    0.0000 C   0  0  0  0  0  0  0  0  0  0  0  0
   -4.0525    3.3158    0.0000 C   0  0  0  0  0  0  0  0  0  0  0  0
   -2.5525    3.3158    0.0000 C   0  0  0  0  0  0  0  0  0  0  0  0
   -1.8025    2.0167    0.0000 O   0  0  0  0  0  0  0  0  0  0  0  0
   -1.8025    4.6148    0.0000 N   0  0  0  0  0  0  0  0  0  0  0  0
   -0.3026    4.6148    0.0000 C   0  0  0  0  0  0  0  0  0  0  0  0
    0.5791    5.8283    0.0000 N   0  0  0  0  0  0  0  0  0  0  0  0
    2.0056    5.3648    0.0000 C   0  0  0  0  0  0  0  0  0  0  0  0
    3.3047    6.1148    0.0000 C   0  0  0  0  0  0  0  0  0  0  0  0
    4.6037    5.3648    0.0000 C   0  0  0  0  0  0  0  0  0  0  0  0
    5.9026    6.1148    0.0000 O   0  0  0  0  0  0  0  0  0  0  0  0
    7.2017    5.3648    0.0000 C   0  0  0  0  0  0  0  0  0  0  0  0
    7.2017    3.8649    0.0000 O   0  0  0  0  0  0  0  0  0  0  0  0
    8.5008    6.1148    0.0000 C   0  0  0  0  0  0  0  0  0  0  0  0
    9.7997    6.8648    0.0000 C   0  0  0  0  0  0  0  0  0  0  0  0
    9.2508    4.8157    0.0000 C   0  0  0  0  0  0  0  0  0  0  0  0
    7.7508    7.4137    0.0000 C   0  0  0  0  0  0  0  0  0  0  0  0
    4.6037    3.8649    0.0000 C   0  0  0  0  0  0  0  0  0  0  0  0
    2.0056    3.8649    0.0000 C   0  0  0  0  0  0  0  0  0  0  0  0
    3.3047    3.1149    0.0000 C   0  0  0  0  0  0  0  0  0  0  0  0
    0.5791    3.4012    0.0000 N   0  0  0  0  0  0  0  0  0  0  0  0
    0.1154    1.9747    0.0000 C   0  0  0  0  0  0  0  0  0  0  0  0
    1.1192    0.8600    0.0000 C   0  0  0  0  0  0  0  0  0  0  0  0
    2.5865    1.1718    0.0000 C   0  0  0  0  0  0  0  0  0  0  0  0
    3.5901    0.0571    0.0000 O   0  0  0  0  0  0  0  0  0  0  0  0
  2  1  1  0  0  0  0
  2  3  2  0  0  0  0
  4  2  1  0  0  0  0
  4  8  1  0  0  0  0
  5  4  2  0  0  0  0
  6  5  1  0  0  0  0
  7  6  2  0  0  0  0
  7  9  1  0  0  0  0
  8  9  2  0  0  0  0
  9 10  1  0  0  0  0
 10 12  1  0  0  0  0
 10 11  2  0  0  0  0
 13 12  1  0  0  0  0
 13 28  1  0  0  0  0
 13 14  2  0  0  0  0
 15 14  1  0  0  0  0
 15 16  2  0  0  0  0
 26 15  1  0  0  0  0
 16 17  1  0  0  0  0
 17 18  1  0  0  0  0
 17 25  2  0  0  0  0
 19 18  1  0  0  0  0
 19 21  1  0  0  0  0
 19 20  2  0  0  0  0
 21 23  1  0  0  0  0
 21 24  1  0  0  0  0
 21 22  1  0  0  0  0
 27 25  1  0  0  0  0
 27 26  2  0  0  0  0
 26 28  1  0  0  0  0
 29 28  1  0  0  0  0
 29 30  1  0  0  0  0
 30 31  1  0  0  0  0
 31 32  1  0  0  0  0
M  CHG  2   1  -1   2   1
M  END
> <Value>
5.899998417198648

> <Relation>
<

> <SourceURI>
mol:CHEMBL1236126

$$$$

Generated by Molecular Materials Informatics

 20 22  0  0  0  0  0  0  0  0999 V2000
    0.6455    4.0865    0.0000 S   0  0  0  0  0  0  0  0  0  0  0  0
    5.9692   -0.1271    0.0000 F   0  0  0  0  0  0  0  0  0  0  0  0
    3.3711   -4.6270    0.0000 F   0  0  0  0  0  0  0  0  0  0  0  0
   -2.4861    1.5740    0.0000 O   0  0  0  0  0  0  0  0  0  0  0  0
    4.6701    3.6228    0.0000 N   0  0  0  0  0  0  0  0  0  0  0  0
   -2.4861    4.1719    0.0000 N   0  0  0  0  0  0  0  0  0  0  0  0
    2.0720    2.1229    0.0000 C   0  0  0  0  0  0  0  0  0  0  0  0
    3.3711    1.3729    0.0000 C   0  0  0  0  0  0  0  0  0  0  0  0
    2.0720    3.6228    0.0000 C   0  0  0  0  0  0  0  0  0  0  0  0
    3.3711   -0.1271    0.0000 C   0  0  0  0  0  0  0  0  0  0  0  0
   -0.2361    2.8729    0.0000 C   0  0  0  0  0  0  0  0  0  0  0  0
    0.6455    1.6594    0.0000 C   0  0  0  0  0  0  0  0  0  0  0  0
    4.6701    2.1229    0.0000 C   0  0  0  0  0  0  0  0  0  0  0  0
    4.6701   -0.8771    0.0000 C   0  0  0  0  0  0  0  0  0  0  0  0
    3.3711    4.3728    0.0000 C   0  0  0  0  0  0  0  0  0  0  0  0
   -1.7361    2.8729    0.0000 C   0  0  0  0  0  0  0  0  0  0  0  0
    2.0720   -0.8771    0.0000 C   0  0  0  0  0  0  0  0  0  0  0  0
    4.6701   -2.3771    0.0000 C   0  0  0  0  0  0  0  0  0  0  0  0
    3.3711   -3.1271    0.0000 C   0  0  0  0  0  0  0  0  0  0  0  0
    2.0720   -2.3771    0.0000 C   0  0  0  0  0  0  0  0  0  0  0  0
  1  9  1  0  0  0  0
  1 11  1  0  0  0  0
  2 14  1  0  0  0  0
  3 19  1  0  0  0  0
  4 16  2  0  0  0  0
  5 13  2  0  0  0  0
  5 15  1  0  0  0  0
  6 16  1  0  0  0  0
  7  8  2  0  0  0  0
  7  9  1  0  0  0  0
  7 12  1  0  0  0  0
  8 10  1  0  0  0  0
  8 13  1  0  0  0  0
  9 15  2  0  0  0  0
 10 14  1  0  0  0  0
 10 17  2  0  0  0  0
 11 12  2  0  0  0  0
 11 16  1  0  0  0  0
 14 18  2  0  0  0  0
 17 20  1  0  0  0  0
 18 19  1  0  0  0  0
 19 20  2  0  0  0  0
M  END
> <Value>
6.0999990348465305

> <Relation>
=

> <SourceURI>
mol:CHEMBL1975787

$$$$

Generated by Molecular Materials Informatics

 30 33  0  0  0  0  0  0  0  0999 V2000
    1.7212   -7.1812    0.0000 F   0  0  0  0  0  0  0  0  0  0  0  0
    3.2212   -5.6812    0.0000 F   0  0  0  0  0  0  0  0  0  0  0  0
    0.2212   -5.6812    0.0000 F   0  0  0  0  0  0  0  0  0  0  0  0
    1.7212    0.3188    0.0000 O   0  0  0  0  0  0  0  0  0  0  0  0
    3.0202   10.0687    0.0000 O   0  0  0  0  0  0  0  0  0  0  0  0
   -0.8768   -4.1812    0.0000 N   0  0  0  0  0  0  0  0  0  0  0  0
   -0.8768    0.3188    0.0000 N   0  0  0  0  0  0  0  0  0  0  0  0
    0.4222    2.5687    0.0000 N   0  0  0  0  0  0  0  0  0  0  0  0
    3.0202    7.0687    0.0000 N   0  0  0  0  0  0  0  0  0  0  0  0
    1.7212    4.8187    0.0000 N   0  0  0  0  0  0  0  0  0  0  0  0
    0.4222   -3.4312    0.0000 C   0  0  0  0  0  0  0  0  0  0  0  0
    0.4222   -1.9312    0.0000 C   0  0  0  0  0  0  0  0  0  0  0  0
    1.7212   -4.1812    0.0000 C   0  0  0  0  0  0  0  0  0  0  0  0
   -0.8768   -1.1812    0.0000 C   0  0  0  0  0  0  0  0  0  0  0  0
    1.7212   -5.6812    0.0000 C   0  0  0  0  0  0  0  0  0  0  0  0
    1.7212   -1.1812    0.0000 C   0  0  0  0  0  0  0  0  0  0  0  0
    3.0202   -3.4312    0.0000 C   0  0  0  0  0  0  0  0  0  0  0  0
   -2.1759   -1.9312    0.0000 C   0  0  0  0  0  0  0  0  0  0  0  0
    3.0202   -1.9312    0.0000 C   0  0  0  0  0  0  0  0  0  0  0  0
   -2.1759   -3.4312    0.0000 C   0  0  0  0  0  0  0  0  0  0  0  0
    0.4222    1.0688    0.0000 C   0  0  0  0  0  0  0  0  0  0  0  0
    3.0202    5.5687    0.0000 C   0  0  0  0  0  0  0  0  0  0  0  0
    1.7212    3.3187    0.0000 C   0  0  0  0  0  0  0  0  0  0  0  0
    4.3193    4.8187    0.0000 C   0  0  0  0  0  0  0  0  0  0  0  0
    3.0202    2.5687    0.0000 C   0  0  0  0  0  0  0  0  0  0  0  0
    4.3193    3.3187    0.0000 C   0  0  0  0  0  0  0  0  0  0  0  0
    4.3193    7.8187    0.0000 C   0  0  0  0  0  0  0  0  0  0  0  0
    1.7212    7.8187    0.0000 C   0  0  0  0  0  0  0  0  0  0  0  0
    4.3193    9.3187    0.0000 C   0  0  0  0  0  0  0  0  0  0  0  0
    1.7212    9.3187    0.0000 C   0  0  0  0  0  0  0  0  0  0  0  0
  1 15  1  0  0  0  0
  2 15  1  0  0  0  0
  3 15  1  0  0  0  0
  4 21  2  0  0  0  0
  5 29  1  0  0  0  0
  5 30  1  0  0  0  0
  6 11  2  0  0  0  0
  6 20  1  0  0  0  0
  7 14  1  0  0  0  0
  7 21  1  0  0  0  0
  8 21  1  0  0  0  0
  8 23  1  0  0  0  0
  9 22  1  0  0  0  0
  9 27  1  0  0  0  0
  9 28  1  0  0  0  0
 10 22  2  0  0  0  0
 10 23  1  0  0  0  0
 11 12  1  0  0  0  0
 11 13  1  0  0  0  0
 12 14  2  0  0  0  0
 12 16  1  0  0  0  0
 13 15  1  0  0  0  0
 13 17  2  0  0  0  0
 14 18  1  0  0  0  0
 16 19  2  0  0  0  0
 17 19  1  0  0  0  0
 18 20  2  0  0  0  0
 22 24  1  0  0  0  0
 23 25  2  0  0  0  0
 24 26  2  0  0  0  0
 25 26  1  0  0  0  0
 27 29  1  0  0  0  0
 28 30  1  0  0  0  0
M  END
> <Value>
5.899998417198648

> <Relation>
<

> <SourceURI>
mol:CHEMBL1972119

$$$$

Generated by Molecular Materials Informatics

 23 26  0  0  0  0  0  0  0  0999 V2000
   -0.2088   -1.4053    0.0000 S   0  0  0  0  0  0  0  0  0  0  0  0
   -0.2088    1.0217    0.0000 N   0  0  0  0  0  0  0  0  0  0  0  0
   -2.5904   -0.1917    0.0000 N   0  0  0  0  0  0  0  0  0  0  0  0
    7.7128   -3.1916    0.0000 N   0  0  0  0  0  0  0  0  0  0  0  0
    1.2177   -0.9417    0.0000 C   0  0  0  0  0  0  0  0  0  0  0  0
    1.2177    0.5583    0.0000 C   0  0  0  0  0  0  0  0  0  0  0  0
    3.8158   -0.9417    0.0000 C   0  0  0  0  0  0  0  0  0  0  0  0
   -1.0904   -0.1917    0.0000 C   0  0  0  0  0  0  0  0  0  0  0  0
    2.5168   -1.6916    0.0000 C   0  0  0  0  0  0  0  0  0  0  0  0
    2.5168    1.3083    0.0000 C   0  0  0  0  0  0  0  0  0  0  0  0
    5.1147   -1.6916    0.0000 C   0  0  0  0  0  0  0  0  0  0  0  0
    3.8158    0.5583    0.0000 C   0  0  0  0  0  0  0  0  0  0  0  0
    5.1147   -3.1916    0.0000 C   0  0  0  0  0  0  0  0  0  0  0  0
    6.4137   -0.9417    0.0000 C   0  0  0  0  0  0  0  0  0  0  0  0
   -3.3403   -1.4907    0.0000 C   0  0  0  0  0  0  0  0  0  0  0  0
   -4.8403   -1.4907    0.0000 C   0  0  0  0  0  0  0  0  0  0  0  0
    6.4137   -3.9416    0.0000 C   0  0  0  0  0  0  0  0  0  0  0  0
    7.7128   -1.6916    0.0000 C   0  0  0  0  0  0  0  0  0  0  0  0
   -5.5903   -2.7898    0.0000 C   0  0  0  0  0  0  0  0  0  0  0  0
   -5.5903   -0.1917    0.0000 C   0  0  0  0  0  0  0  0  0  0  0  0
   -7.0902   -2.7898    0.0000 C   0  0  0  0  0  0  0  0  0  0  0  0
   -7.0902   -0.1917    0.0000 C   0  0  0  0  0  0  0  0  0  0  0  0
   -7.8402   -1.4907    0.0000 C   0  0  0  0  0  0  0  0  0  0  0  0
  1  5  1  0  0  0  0
  1  8  1  0  0  0  0
  2  6  1  0  0  0  0
  2  8  2  0  0  0  0
  3  8  1  0  0  0  0
  3 15  1  0  0  0  0
  4 17  2  0  0  0  0
  4 18  1  0  0  0  0
  5  6  1  0  0  0  0
  5  9  2  0  0  0  0
  6 10  2  0  0  0  0
  7  9  1  0  0  0  0
  7 11  1  0  0  0  0
  7 12  2  0  0  0  0
 10 12  1  0  0  0  0
 11 13  2  0  0  0  0
 11 14  1  0  0  0  0
 13 17  1  0  0  0  0
 14 18  2  0  0  0  0
 15 16  1  0  0  0  0
 16 19  2  0  0  0  0
 16 20  1  0  0  0  0
 19 21  1  0  0  0  0
 20 22  2  0  0  0  0
 21 23  2  0  0  0  0
 22 23  1  0  0  0  0
M  END
> <Value>
5.899998417198648

> <Relation>
<

> <SourceURI>
mol:CHEMBL1983534

$$$$

Generated by Molecular Materials Informatics

 32 36  0  0  0  0  0  0  0  0999 V2000
   -1.2096   -1.0985    0.0000 O   0  0  0  0  0  0  0  0  0  0  0  0
    3.3486   -0.5494    0.0000 N   0  0  0  0  0  0  0  0  0  0  0  0
    1.9221    1.4140    0.0000 N   0  0  0  0  0  0  0  0  0  0  0  0
   -0.0086   -2.7514    0.0000 N   0  0  0  0  0  0  0  0  0  0  0  0
    0.5315   -5.2927    0.0000 N   0  0  0  0  0  0  0  0  0  0  0  0
   -1.9394   -4.4900    0.0000 N   0  0  0  0  0  0  0  0  0  0  0  0
   -1.2096    1.4995    0.0000 N   0  0  0  0  0  0  0  0  0  0  0  0
   -6.8812   -2.8841    0.0000 N   0  0  0  0  0  0  0  0  0  0  0  0
   -9.8157   -3.5080    0.0000 N   0  0  0  0  0  0  0  0  0  0  0  0
    1.9221   -1.0130    0.0000 C   0  0  0  0  0  0  0  0  0  0  0  0
    1.0404    0.2006    0.0000 C   0  0  0  0  0  0  0  0  0  0  0  0
    3.3486    0.9506    0.0000 C   0  0  0  0  0  0  0  0  0  0  0  0
    1.4586   -2.4396    0.0000 C   0  0  0  0  0  0  0  0  0  0  0  0
   -0.4596    0.2006    0.0000 C   0  0  0  0  0  0  0  0  0  0  0  0
    4.6477   -1.2994    0.0000 C   0  0  0  0  0  0  0  0  0  0  0  0
    4.6477    1.7006    0.0000 C   0  0  0  0  0  0  0  0  0  0  0  0
    2.4623   -3.5543    0.0000 C   0  0  0  0  0  0  0  0  0  0  0  0
   -0.4723   -4.1781    0.0000 C   0  0  0  0  0  0  0  0  0  0  0  0
    5.9468   -0.5494    0.0000 C   0  0  0  0  0  0  0  0  0  0  0  0
    5.9468    0.9506    0.0000 C   0  0  0  0  0  0  0  0  0  0  0  0
    1.9986   -4.9809    0.0000 C   0  0  0  0  0  0  0  0  0  0  0  0
   -2.9432   -3.3752    0.0000 C   0  0  0  0  0  0  0  0  0  0  0  0
   -5.4141   -2.5723    0.0000 C   0  0  0  0  0  0  0  0  0  0  0  0
   -4.4103   -3.6871    0.0000 C   0  0  0  0  0  0  0  0  0  0  0  0
   -2.4796   -1.9487    0.0000 C   0  0  0  0  0  0  0  0  0  0  0  0
   -4.9505   -1.1458    0.0000 C   0  0  0  0  0  0  0  0  0  0  0  0
   -3.4834   -0.8340    0.0000 C   0  0  0  0  0  0  0  0  0  0  0  0
   -7.3448   -4.3109    0.0000 C   0  0  0  0  0  0  0  0  0  0  0  0
   -7.8850   -1.7694    0.0000 C   0  0  0  0  0  0  0  0  0  0  0  0
   -8.8119   -4.6227    0.0000 C   0  0  0  0  0  0  0  0  0  0  0  0
   -9.3521   -2.0814    0.0000 C   0  0  0  0  0  0  0  0  0  0  0  0
  -11.2830   -3.8198    0.0000 C   0  0  0  0  0  0  0  0  0  0  0  0
  1 14  2  0  0  0  0
  2 10  1  0  0  0  0
  2 12  1  0  0  0  0
  2 15  1  0  0  0  0
  3 11  1  0  0  0  0
  3 12  2  0  0  0  0
  4 13  2  0  0  0  0
  4 18  1  0  0  0  0
  5 18  2  0  0  0  0
  5 21  1  0  0  0  0
  6 18  1  0  0  0  0
  6 22  1  0  0  0  0
  7 14  1  0  0  0  0
  8 23  1  0  0  0  0
  8 28  1  0  0  0  0
  8 29  1  0  0  0  0
  9 30  1  0  0  0  0
  9 31  1  0  0  0  0
  9 32  1  0  0  0  0
 10 11  2  0  0  0  0
 10 13  1  0  0  0  0
 11 14  1  0  0  0  0
 12 16  1  0  0  0  0
 13 17  1  0  0  0  0
 15 19  2  0  0  0  0
 16 20  2  0  0  0  0
 17 21  2  0  0  0  0
 19 20  1  0  0  0  0
 22 24  2  0  0  0  0
 22 25  1  0  0  0  0
 23 24  1  0  0  0  0
 23 26  2  0  0  0  0
 25 27  2  0  0  0  0
 26 27  1  0  0  0  0
 28 30  1  0  0  0  0
 29 31  1  0  0  0  0
M  END
> <Value>
5.899998417198648

> <Relation>
<

> <SourceURI>
mol:CHEMBL1971245

$$$$

Generated by Molecular Materials Informatics

 20 23  0  0  0  0  0  0  0  0999 V2000
    3.6531    1.7487    0.0000 C   0  0  0  0  0  0  0  0  0  0  0  0
    2.7289    2.9302    0.0000 C   0  0  0  0  0  0  0  0  0  0  0  0
    1.2436    2.7205    0.0000 C   0  0  0  0  0  0  0  0  0  0  0  0
    3.0920    0.3576    0.0000 C   0  0  0  0  0  0  0  0  0  0  0  0
   -1.4435   -1.2860    0.0000 C   0  0  0  0  0  0  0  0  0  0  0  0
    0.6825    1.3293    0.0000 C   0  0  0  0  0  0  0  0  0  0  0  0
    1.6067    0.1478    0.0000 C   0  0  0  0  0  0  0  0  0  0  0  0
    1.2593   -1.3113    0.0000 N   0  0  0  0  0  0  0  0  0  0  0  0
   -0.0982   -1.9495    0.0000 C   0  0  0  0  0  0  0  0  0  0  0  0
   -0.1124   -3.4495    0.0000 O   0  0  0  0  0  0  0  0  0  0  0  0
   -1.7637    0.1794    0.0000 C   0  0  0  0  0  0  0  0  0  0  0  0
   -0.8175    1.3434    0.0000 C   0  0  0  0  0  0  0  0  0  0  0  0
   -1.6320    2.6029    0.0000 N   0  0  0  0  0  0  0  0  0  0  0  0
   -3.1630    0.7196    0.0000 C   0  0  0  0  0  0  0  0  0  0  0  0
   -3.0817    2.2174    0.0000 C   0  0  0  0  0  0  0  0  0  0  0  0
   -4.3381    3.0367    0.0000 C   0  0  0  0  0  0  0  0  0  0  0  0
   -5.6759    2.3584    0.0000 C   0  0  0  0  0  0  0  0  0  0  0  0
   -5.7574    0.8605    0.0000 C   0  0  0  0  0  0  0  0  0  0  0  0
   -4.5008    0.0412    0.0000 C   0  0  0  0  0  0  0  0  0  0  0  0
   -7.0952    0.1821    0.0000 Br  0  0  0  0  0  0  0  0  0  0  0  0
  6  7  1  0  0  0  0
  4  1  1  0  0  0  0
  9 10  2  0  0  0  0
 11 12  2  0  0  0  0
  2  3  1  0  0  0  0
  3  6  2  0  0  0  0
 12 13  1  0  0  0  0
 13 15  1  0  0  0  0
 14 11  1  0  0  0  0
  1  2  2  0  0  0  0
  7  4  2  0  0  0  0
 14 15  2  0  0  0  0
 11  5  1  0  0  0  0
 15 16  1  0  0  0  0
 12  6  1  0  0  0  0
 16 17  2  0  0  0  0
  7  8  1  0  0  0  0
 17 18  1  0  0  0  0
  8  9  1  0  0  0  0
 18 19  2  0  0  0  0
 19 14  1  0  0  0  0
  9  5  1  0  0  0  0
 18 20  1  0  0  0  0
M  END
> <Value>
5.899998417198648

> <Relation>
<

> <SourceURI>
mol:CHEMBL296586

$$$$

Generated by Molecular Materials Informatics

 22 24  0  0  0  0  0  0  0  0999 V2000
   -1.3076    2.6002    0.0000 Cl  0  0  0  0  0  0  0  0  0  0  0  0
    3.8030   -2.0314    0.0000 S   0  0  0  0  0  0  0  0  0  0  0  0
    1.2904    1.1002    0.0000 O   0  0  0  0  0  0  0  0  0  0  0  0
    1.3759   -2.0314    0.0000 N   0  0  0  0  0  0  0  0  0  0  0  0
    3.6110   -6.0418    0.0000 N   0  0  0  0  0  0  0  0  0  0  0  0
    5.9846   -7.0985    0.0000 N   0  0  0  0  0  0  0  0  0  0  0  0
    3.8826   -8.6256    0.0000 N   0  0  0  0  0  0  0  0  0  0  0  0
    3.3395   -3.4580    0.0000 C   0  0  0  0  0  0  0  0  0  0  0  0
    1.8395   -3.4580    0.0000 C   0  0  0  0  0  0  0  0  0  0  0  0
    4.2211   -4.6714    0.0000 C   0  0  0  0  0  0  0  0  0  0  0  0
    2.5895   -1.1498    0.0000 C   0  0  0  0  0  0  0  0  0  0  0  0
    2.5895    0.3502    0.0000 C   0  0  0  0  0  0  0  0  0  0  0  0
    5.7130   -4.5147    0.0000 C   0  0  0  0  0  0  0  0  0  0  0  0
    4.4928   -7.2554    0.0000 C   0  0  0  0  0  0  0  0  0  0  0  0
    1.2904    2.6002    0.0000 C   0  0  0  0  0  0  0  0  0  0  0  0
    0.9579   -4.6714    0.0000 C   0  0  0  0  0  0  0  0  0  0  0  0
   -0.0087    3.3502    0.0000 C   0  0  0  0  0  0  0  0  0  0  0  0
    6.5946   -5.7282    0.0000 C   0  0  0  0  0  0  0  0  0  0  0  0
    2.5895    3.3502    0.0000 C   0  0  0  0  0  0  0  0  0  0  0  0
   -0.0087    4.8502    0.0000 C   0  0  0  0  0  0  0  0  0  0  0  0
    2.5895    4.8502    0.0000 C   0  0  0  0  0  0  0  0  0  0  0  0
    1.2904    5.6002    0.0000 C   0  0  0  0  0  0  0  0  0  0  0  0
  1 17  1  0  0  0  0
  2  8  1  0  0  0  0
  2 11  1  0  0  0  0
  3 12  1  0  0  0  0
  3 15  1  0  0  0  0
  4  9  1  0  0  0  0
  4 11  2  0  0  0  0
  5 10  1  0  0  0  0
  5 14  2  0  0  0  0
  6 14  1  0  0  0  0
  6 18  2  0  0  0  0
  7 14  1  0  0  0  0
  8  9  2  0  0  0  0
  8 10  1  0  0  0  0
  9 16  1  0  0  0  0
 10 13  2  0  0  0  0
 11 12  1  0  0  0  0
 13 18  1  0  0  0  0
 15 17  1  0  0  0  0
 15 19  2  0  0  0  0
 17 20  2  0  0  0  0
 19 21  1  0  0  0  0
 20 22  1  0  0  0  0
 21 22  2  0  0  0  0
M  END
> <Value>
5.899998417198648

> <Relation>
<

> <SourceURI>
mol:CHEMBL1375640

$$$$

Generated by Molecular Materials Informatics

 39 42  0  0  0  0  0  0  0  0999 V2000
  -11.0046    0.2430    0.0000 O   0  0  0  0  0  0  0  0  0  0  0  0
   -1.3283   -1.8366    0.0000 O   0  0  0  0  0  0  0  0  0  0  0  0
   -6.5783   -0.5375    0.0000 N   0  0  0  0  0  0  0  0  0  0  0  0
   -5.9683    0.8329    0.0000 N   0  0  0  0  0  0  0  0  0  0  0  0
   -9.0739   -1.4955    0.0000 N   0  0  0  0  0  0  0  0  0  0  0  0
  -11.5448   -2.2982    0.0000 N   0  0  0  0  0  0  0  0  0  0  0  0
   -1.3283   -4.4346    0.0000 N   0  0  0  0  0  0  0  0  0  0  0  0
    3.1716   -7.0327    0.0000 N   0  0  0  0  0  0  0  0  0  0  0  0
   -8.0701   -0.3808    0.0000 C   0  0  0  0  0  0  0  0  0  0  0  0
   -7.0830    1.8365    0.0000 C   0  0  0  0  0  0  0  0  0  0  0  0
   -5.8283   -1.8366    0.0000 C   0  0  0  0  0  0  0  0  0  0  0  0
   -8.3821    1.0865    0.0000 C   0  0  0  0  0  0  0  0  0  0  0  0
   -6.9261    3.3283    0.0000 C   0  0  0  0  0  0  0  0  0  0  0  0
   -4.3283   -1.8366    0.0000 C   0  0  0  0  0  0  0  0  0  0  0  0
   -3.5783   -3.1357    0.0000 C   0  0  0  0  0  0  0  0  0  0  0  0
   -6.5783   -3.1357    0.0000 C   0  0  0  0  0  0  0  0  0  0  0  0
  -10.5410   -1.1835    0.0000 C   0  0  0  0  0  0  0  0  0  0  0  0
   -2.0783   -3.1357    0.0000 C   0  0  0  0  0  0  0  0  0  0  0  0
  -11.0811   -3.7249    0.0000 C   0  0  0  0  0  0  0  0  0  0  0  0
  -12.0849   -4.8396    0.0000 C   0  0  0  0  0  0  0  0  0  0  0  0
   -4.3283   -4.4346    0.0000 C   0  0  0  0  0  0  0  0  0  0  0  0
   -5.8283   -4.4346    0.0000 C   0  0  0  0  0  0  0  0  0  0  0  0
  -11.6213   -6.2662    0.0000 C   0  0  0  0  0  0  0  0  0  0  0  0
   -6.7694    4.8201    0.0000 C   0  0  0  0  0  0  0  0  0  0  0  0
   -8.4179    3.4850    0.0000 C   0  0  0  0  0  0  0  0  0  0  0  0
   -5.4345    3.1714    0.0000 C   0  0  0  0  0  0  0  0  0  0  0  0
   -9.6141   -4.0367    0.0000 C   0  0  0  0  0  0  0  0  0  0  0  0
  -13.5520   -4.5276    0.0000 C   0  0  0  0  0  0  0  0  0  0  0  0
  -10.1541   -6.5780    0.0000 C   0  0  0  0  0  0  0  0  0  0  0  0
   -2.0783   -5.7336    0.0000 C   0  0  0  0  0  0  0  0  0  0  0  0
  -12.6251   -7.3809    0.0000 C   0  0  0  0  0  0  0  0  0  0  0  0
   -9.1504   -5.4633    0.0000 C   0  0  0  0  0  0  0  0  0  0  0  0
    0.1717   -4.4346    0.0000 C   0  0  0  0  0  0  0  0  0  0  0  0
  -14.5558   -5.6424    0.0000 C   0  0  0  0  0  0  0  0  0  0  0  0
  -14.0922   -7.0689    0.0000 C   0  0  0  0  0  0  0  0  0  0  0  0
    0.9217   -5.7336    0.0000 C   0  0  0  0  0  0  0  0  0  0  0  0
   -1.3283   -7.0327    0.0000 C   0  0  0  0  0  0  0  0  0  0  0  0
   -3.5783   -5.7336    0.0000 C   0  0  0  0  0  0  0  0  0  0  0  0
    2.4216   -5.7336    0.0000 C   0  0  0  0  0  0  0  0  0  0  0  0
  1 17  2  0  0  0  0
  2 18  2  0  0  0  0
  3  4  1  0  0  0  0
  3  9  1  0  0  0  0
  3 11  1  0  0  0  0
  4 10  2  0  0  0  0
  5  9  1  0  0  0  0
  5 17  1  0  0  0  0
  6 17  1  0  0  0  0
  6 19  1  0  0  0  0
  7 18  1  0  0  0  0
  7 30  1  0  0  0  0
  7 33  1  0  0  0  0
  8 39  1  0  0  0  0
  9 12  2  0  0  0  0
 10 12  1  0  0  0  0
 10 13  1  0  0  0  0
 11 14  2  0  0  0  0
 11 16  1  0  0  0  0
 13 24  1  0  0  0  0
 13 25  1  0  0  0  0
 13 26  1  0  0  0  0
 14 15  1  0  0  0  0
 15 18  1  0  0  0  0
 15 21  2  0  0  0  0
 16 22  2  0  0  0  0
 19 20  1  0  0  0  0
 19 27  2  0  0  0  0
 20 23  1  0  0  0  0
 20 28  2  0  0  0  0
 21 22  1  0  0  0  0
 23 29  1  0  0  0  0
 23 31  2  0  0  0  0
 27 32  1  0  0  0  0
 28 34  1  0  0  0  0
 29 32  2  0  0  0  0
 30 37  1  0  0  0  0
 30 38  1  0  0  0  0
 31 35  1  0  0  0  0
 33 36  1  0  0  0  0
 34 35  2  0  0  0  0
 36 39  1  0  0  0  0
M  END
> <Value>
5.300000202445418

> <Relation>
<

> <SourceURI>
mol:CHEMBL1994318

$$$$

Generated by Molecular Materials Informatics

 31 34  0  0  0  0  0  0  0  0999 V2000
    4.1570   -7.2826    0.0000 F   0  0  0  0  0  0  0  0  0  0  0  0
    6.2059   -7.8317    0.0000 F   0  0  0  0  0  0  0  0  0  0  0  0
    4.7059   -5.2336    0.0000 F   0  0  0  0  0  0  0  0  0  0  0  0
    5.4559   -2.0327    0.0000 O   0  0  0  0  0  0  0  0  0  0  0  0
   -2.3382    2.4672    0.0000 N   0  0  0  0  0  0  0  0  0  0  0  0
   -2.3382    5.4672    0.0000 N   0  0  0  0  0  0  0  0  0  0  0  0
    0.2598    0.9673    0.0000 N   0  0  0  0  0  0  0  0  0  0  0  0
    6.7550    0.2173    0.0000 N   0  0  0  0  0  0  0  0  0  0  0  0
    8.0540   -2.0327    0.0000 N   0  0  0  0  0  0  0  0  0  0  0  0
    1.5589    3.2172    0.0000 C   0  0  0  0  0  0  0  0  0  0  0  0
    0.2598    2.4672    0.0000 C   0  0  0  0  0  0  0  0  0  0  0  0
   -1.0391    3.2172    0.0000 C   0  0  0  0  0  0  0  0  0  0  0  0
   -1.0391    4.7172    0.0000 C   0  0  0  0  0  0  0  0  0  0  0  0
    2.8579    2.4672    0.0000 C   0  0  0  0  0  0  0  0  0  0  0  0
    1.5589    4.7172    0.0000 C   0  0  0  0  0  0  0  0  0  0  0  0
    0.2598    5.4672    0.0000 C   0  0  0  0  0  0  0  0  0  0  0  0
    6.7550   -5.7826    0.0000 C   0  0  0  0  0  0  0  0  0  0  0  0
    4.1570    3.2172    0.0000 C   0  0  0  0  0  0  0  0  0  0  0  0
    2.8579    0.9673    0.0000 C   0  0  0  0  0  0  0  0  0  0  0  0
    5.4559   -6.5326    0.0000 C   0  0  0  0  0  0  0  0  0  0  0  0
    5.4559    0.9673    0.0000 C   0  0  0  0  0  0  0  0  0  0  0  0
    8.0540   -3.5327    0.0000 C   0  0  0  0  0  0  0  0  0  0  0  0
    6.7550   -4.2827    0.0000 C   0  0  0  0  0  0  0  0  0  0  0  0
    5.4559    2.4672    0.0000 C   0  0  0  0  0  0  0  0  0  0  0  0
    4.1570    0.2173    0.0000 C   0  0  0  0  0  0  0  0  0  0  0  0
   -3.6372    3.2172    0.0000 C   0  0  0  0  0  0  0  0  0  0  0  0
   -3.6372    4.7172    0.0000 C   0  0  0  0  0  0  0  0  0  0  0  0
    6.7550   -1.2827    0.0000 C   0  0  0  0  0  0  0  0  0  0  0  0
    8.0540   -6.5326    0.0000 C   0  0  0  0  0  0  0  0  0  0  0  0
    9.3529   -4.2827    0.0000 C   0  0  0  0  0  0  0  0  0  0  0  0
    9.3529   -5.7826    0.0000 C   0  0  0  0  0  0  0  0  0  0  0  0
  1 20  1  0  0  0  0
  2 20  1  0  0  0  0
  3 20  1  0  0  0  0
  4 28  2  0  0  0  0
  5 12  2  0  0  0  0
  5 26  1  0  0  0  0
  6 13  2  0  0  0  0
  6 27  1  0  0  0  0
  7 11  1  0  0  0  0
  8 21  1  0  0  0  0
  8 28  1  0  0  0  0
  9 22  1  0  0  0  0
  9 28  1  0  0  0  0
 10 11  2  0  0  0  0
 10 14  1  0  0  0  0
 10 15  1  0  0  0  0
 11 12  1  0  0  0  0
 12 13  1  0  0  0  0
 13 16  1  0  0  0  0
 14 18  2  0  0  0  0
 14 19  1  0  0  0  0
 15 16  2  0  0  0  0
 17 20  1  0  0  0  0
 17 23  2  0  0  0  0
 17 29  1  0  0  0  0
 18 24  1  0  0  0  0
 19 25  2  0  0  0  0
 21 24  2  0  0  0  0
 21 25  1  0  0  0  0
 22 23  1  0  0  0  0
 22 30  2  0  0  0  0
 26 27  2  0  0  0  0
 29 31  2  0  0  0  0
 30 31  1  0  0  0  0
M  END
> <Value>
5.499999678657065

> <Relation>
<

> <SourceURI>
mol:CHEMBL2004438

$$$$

Generated by Molecular Materials Informatics

 18 20  0  0  0  0  0  0  0  0999 V2000
   -0.3444   -0.7030    0.0000 S   0  0  0  0  0  0  0  0  0  0  0  0
   -3.4760   -0.7885    0.0000 O   0  0  0  0  0  0  0  0  0  0  0  0
   -3.4760    1.8095    0.0000 O   0  0  0  0  0  0  0  0  0  0  0  0
    3.6802   -0.2396    0.0000 N   0  0  0  0  0  0  0  0  0  0  0  0
    1.0821    1.2604    0.0000 C   0  0  0  0  0  0  0  0  0  0  0  0
    1.0821   -0.2396    0.0000 C   0  0  0  0  0  0  0  0  0  0  0  0
    2.3812    2.0104    0.0000 C   0  0  0  0  0  0  0  0  0  0  0  0
   -1.2261    0.5104    0.0000 C   0  0  0  0  0  0  0  0  0  0  0  0
   -0.3444    1.7241    0.0000 C   0  0  0  0  0  0  0  0  0  0  0  0
    2.3812    3.5104    0.0000 C   0  0  0  0  0  0  0  0  0  0  0  0
    2.3812   -0.9895    0.0000 C   0  0  0  0  0  0  0  0  0  0  0  0
    3.6802    1.2604    0.0000 C   0  0  0  0  0  0  0  0  0  0  0  0
   -2.7260    0.5104    0.0000 C   0  0  0  0  0  0  0  0  0  0  0  0
    1.0821    4.2604    0.0000 C   0  0  0  0  0  0  0  0  0  0  0  0
    3.6802    4.2604    0.0000 C   0  0  0  0  0  0  0  0  0  0  0  0
    1.0821    5.7604    0.0000 C   0  0  0  0  0  0  0  0  0  0  0  0
    3.6802    5.7604    0.0000 C   0  0  0  0  0  0  0  0  0  0  0  0
    2.3812    6.5103    0.0000 C   0  0  0  0  0  0  0  0  0  0  0  0
  1  6  1  0  0  0  0
  1  8  1  0  0  0  0
  2 13  2  0  0  0  0
  3 13  1  0  0  0  0
  4 11  1  0  0  0  0
  4 12  2  0  0  0  0
  5  6  1  0  0  0  0
  5  7  2  0  0  0  0
  5  9  1  0  0  0  0
  6 11  2  0  0  0  0
  7 10  1  0  0  0  0
  7 12  1  0  0  0  0
  8  9  2  0  0  0  0
  8 13  1  0  0  0  0
 10 14  2  0  0  0  0
 10 15  1  0  0  0  0
 14 16  1  0  0  0  0
 15 17  2  0  0  0  0
 16 18  2  0  0  0  0
 17 18  1  0  0  0  0
M  END
> <Value>
6.799998134593398

> <Relation>
=

> <SourceURI>
mol:CHEMBL1996390

$$$$

Generated by Molecular Materials Informatics

 15 17  0  0  0  0  0  0  0  0999 V2000
    1.9339    2.4089    0.0000 S   0  0  0  0  0  0  0  0  0  0  0  0
    3.6877   -1.0141    0.0000 N   0  0  0  0  0  0  0  0  0  0  0  0
   -0.7469    1.8391    0.0000 N   0  0  0  0  0  0  0  0  0  0  0  0
   -1.2871   -0.7023    0.0000 N   0  0  0  0  0  0  0  0  0  0  0  0
    5.6185    0.7243    0.0000 N   0  0  0  0  0  0  0  0  0  0  0  0
    0.6436   -2.4407    0.0000 N   0  0  0  0  0  0  0  0  0  0  0  0
    5.0783    3.2657    0.0000 N   0  0  0  0  0  0  0  0  0  0  0  0
    1.1838    0.1007    0.0000 C   0  0  0  0  0  0  0  0  0  0  0  0
    2.6839    0.1007    0.0000 C   0  0  0  0  0  0  0  0  0  0  0  0
    3.1475    1.5273    0.0000 C   0  0  0  0  0  0  0  0  0  0  0  0
    0.7204    1.5273    0.0000 C   0  0  0  0  0  0  0  0  0  0  0  0
    0.1802   -1.0141    0.0000 C   0  0  0  0  0  0  0  0  0  0  0  0
    4.6148    1.8391    0.0000 C   0  0  0  0  0  0  0  0  0  0  0  0
    5.1548   -0.7023    0.0000 C   0  0  0  0  0  0  0  0  0  0  0  0
   -1.7506    0.7243    0.0000 C   0  0  0  0  0  0  0  0  0  0  0  0
  1 10  1  0  0  0  0
  1 11  1  0  0  0  0
  2  9  1  0  0  0  0
  2 14  2  0  0  0  0
  3 11  2  0  0  0  0
  3 15  1  0  0  0  0
  4 12  1  0  0  0  0
  4 15  2  0  0  0  0
  5 13  2  0  0  0  0
  5 14  1  0  0  0  0
  6 12  1  0  0  0  0
  7 13  1  0  0  0  0
  8  9  1  0  0  0  0
  8 11  1  0  0  0  0
  8 12  2  0  0  0  0
  9 10  2  0  0  0  0
 10 13  1  0  0  0  0
M  END
> <Value>
6.399996913372259

> <Relation>
=

> <SourceURI>
mol:CHEMBL1976090

$$$$

Generated by Molecular Materials Informatics

 20 22  0  0  0  0  0  0  0  0999 V2000
    0.6054   -0.1403    0.0000 O   0  0  0  0  0  0  0  0  0  0  0  0
   -0.8946   -0.1403    0.0000 S   0  0  0  0  0  0  0  0  0  0  0  0
   -2.3946   -0.1403    0.0000 O   0  0  0  0  0  0  0  0  0  0  0  0
   -0.8946   -1.6403    0.0000 N   0  0  0  0  0  0  0  0  0  0  0  0
   -2.2460   -2.2913    0.0000 C   0  0  0  0  0  0  0  0  0  0  0  0
   -2.5798   -3.7536    0.0000 C   0  0  0  0  0  0  0  0  0  0  0  0
   -1.6446   -4.9263    0.0000 N   0  0  0  0  0  0  0  0  0  0  0  0
   -0.1446   -4.9263    0.0000 C   0  0  0  0  0  0  0  0  0  0  0  0
    0.7907   -3.7536    0.0000 C   0  0  0  0  0  0  0  0  0  0  0  0
    0.4569   -2.2913    0.0000 C   0  0  0  0  0  0  0  0  0  0  0  0
   -0.8946    1.3596    0.0000 C   0  0  0  0  0  0  0  0  0  0  0  0
   -2.1935    2.1096    0.0000 C   0  0  0  0  0  0  0  0  0  0  0  0
   -2.1935    3.6096    0.0000 C   0  0  0  0  0  0  0  0  0  0  0  0
   -0.8946    4.3596    0.0000 C   0  0  0  0  0  0  0  0  0  0  0  0
    0.4045    3.6096    0.0000 C   0  0  0  0  0  0  0  0  0  0  0  0
    0.4045    2.1096    0.0000 C   0  0  0  0  0  0  0  0  0  0  0  0
    1.7036    1.3596    0.0000 C   0  0  0  0  0  0  0  0  0  0  0  0
    1.7036    4.3596    0.0000 C   0  0  0  0  0  0  0  0  0  0  0  0
    3.0025    3.6096    0.0000 N   0  0  0  0  0  0  0  0  0  0  0  0
    3.0025    2.1096    0.0000 C   0  0  0  0  0  0  0  0  0  0  0  0
  1  2  2  0  0  0  0
  3  2  2  0  0  0  0
  4  2  1  0  0  0  0
 11  2  1  0  0  0  0
  5  4  1  0  0  0  0
 10  4  1  0  0  0  0
  6  5  1  0  0  0  0
  6  7  1  0  0  0  0
  8  7  1  0  0  0  0
  8  9  1  0  0  0  0
 10  9  1  0  0  0  0
 11 12  2  0  0  0  0
 16 11  1  0  0  0  0
 12 13  1  0  0  0  0
 13 14  2  0  0  0  0
 14 15  1  0  0  0  0
 16 15  2  0  0  0  0
 18 15  1  0  0  0  0
 16 17  1  0  0  0  0
 17 20  2  0  0  0  0
 18 19  2  0  0  0  0
 20 19  1  0  0  0  0
M  END
> <Value>
5.899998417198648

> <Error>
0.0

> <Relation>
=

> <SourceURI>
mol:CHEMBL38380

$$$$

Generated by Molecular Materials Informatics

 29 33  0  0  0  0  0  0  0  0999 V2000
    5.1963    6.6518    0.0000 F   0  0  0  0  0  0  0  0  0  0  0  0
    4.9525   -0.3318    0.0000 N   0  0  0  0  0  0  0  0  0  0  0  0
    2.7354   -1.3189    0.0000 N   0  0  0  0  0  0  0  0  0  0  0  0
    4.2025   -1.6309    0.0000 N   0  0  0  0  0  0  0  0  0  0  0  0
   -2.7452    2.8864    0.0000 N   0  0  0  0  0  0  0  0  0  0  0  0
   -3.6268    1.6727    0.0000 N   0  0  0  0  0  0  0  0  0  0  0  0
    3.9488    0.7829    0.0000 C   0  0  0  0  0  0  0  0  0  0  0  0
    2.5785    0.1727    0.0000 C   0  0  0  0  0  0  0  0  0  0  0  0
    1.2796    0.9227    0.0000 C   0  0  0  0  0  0  0  0  0  0  0  0
    4.2607    2.2502    0.0000 C   0  0  0  0  0  0  0  0  0  0  0  0
   -1.3186    0.9227    0.0000 C   0  0  0  0  0  0  0  0  0  0  0  0
   -0.0195    0.1727    0.0000 C   0  0  0  0  0  0  0  0  0  0  0  0
   -1.3186    2.4227    0.0000 C   0  0  0  0  0  0  0  0  0  0  0  0
    1.2796    2.4227    0.0000 C   0  0  0  0  0  0  0  0  0  0  0  0
   -2.7452    0.4593    0.0000 C   0  0  0  0  0  0  0  0  0  0  0  0
   -0.0195    3.1727    0.0000 C   0  0  0  0  0  0  0  0  0  0  0  0
    6.4443   -0.1751    0.0000 C   0  0  0  0  0  0  0  0  0  0  0  0
    3.1459    3.2538    0.0000 C   0  0  0  0  0  0  0  0  0  0  0  0
    5.6874    2.7137    0.0000 C   0  0  0  0  0  0  0  0  0  0  0  0
    7.3259   -1.3885    0.0000 C   0  0  0  0  0  0  0  0  0  0  0  0
    3.4579    4.7211    0.0000 C   0  0  0  0  0  0  0  0  0  0  0  0
    5.9992    4.1809    0.0000 C   0  0  0  0  0  0  0  0  0  0  0  0
    4.8845    5.1846    0.0000 C   0  0  0  0  0  0  0  0  0  0  0  0
   -3.2086   -0.9673    0.0000 C   0  0  0  0  0  0  0  0  0  0  0  0
    8.8178   -1.2318    0.0000 C   0  0  0  0  0  0  0  0  0  0  0  0
    6.7159   -2.7589    0.0000 C   0  0  0  0  0  0  0  0  0  0  0  0
    9.6994   -2.4452    0.0000 C   0  0  0  0  0  0  0  0  0  0  0  0
    7.5976   -3.9723    0.0000 C   0  0  0  0  0  0  0  0  0  0  0  0
    9.0894   -3.8156    0.0000 C   0  0  0  0  0  0  0  0  0  0  0  0
  1 23  1  0  0  0  0
  2  4  1  0  0  0  0
  2  7  1  0  0  0  0
  2 17  1  0  0  0  0
  3  4  2  0  0  0  0
  3  8  1  0  0  0  0
  5  6  1  0  0  0  0
  5 13  1  0  0  0  0
  6 15  2  0  0  0  0
  7  8  2  0  0  0  0
  7 10  1  0  0  0  0
  8  9  1  0  0  0  0
  9 12  1  0  0  0  0
  9 14  2  0  0  0  0
 10 18  2  0  0  0  0
 10 19  1  0  0  0  0
 11 12  2  0  0  0  0
 11 13  1  0  0  0  0
 11 15  1  0  0  0  0
 13 16  2  0  0  0  0
 14 16  1  0  0  0  0
 15 24  1  0  0  0  0
 17 20  1  0  0  0  0
 18 21  1  0  0  0  0
 19 22  2  0  0  0  0
 20 25  2  0  0  0  0
 20 26  1  0  0  0  0
 21 23  2  0  0  0  0
 22 23  1  0  0  0  0
 25 27  1  0  0  0  0
 26 28  2  0  0  0  0
 27 29  2  0  0  0  0
 28 29  1  0  0  0  0
M  END
> <Value>
7.299988937677887

> <Relation>
=

> <SourceURI>
mol:CHEMBL1972339

$$$$

Generated by Molecular Materials Informatics

 30 32  0  0  0  0  0  0  0  0999 V2000
    1.8286    3.0969    0.0000 N   0  0  0  0  0  0  0  0  0  0  0  0
    0.5332    3.8469    0.0000 C   0  0  0  0  0  0  0  0  0  0  0  0
    3.1392    3.8469    0.0000 C   0  0  0  0  0  0  0  0  0  0  0  0
    4.4423    1.5969    0.0000 C   0  0  0  0  0  0  0  0  0  0  0  0
    4.4423    3.0969    0.0000 N   0  0  0  0  0  0  0  0  0  0  0  0
    0.5332    5.3546    0.0000 N   0  0  0  0  0  0  0  0  0  0  0  0
    3.1468    0.8469    0.0000 C   0  0  0  0  0  0  0  0  0  0  0  0
   -0.7623    3.0969    0.0000 N   0  0  0  0  0  0  0  0  0  0  0  0
    5.7377    0.8546    0.0000 C   0  0  0  0  0  0  0  0  0  0  0  0
    3.1392    5.3546    0.0000 C   0  0  0  0  0  0  0  0  0  0  0  0
    5.7528   -0.6303    0.0000 C   0  0  0  0  0  0  0  0  0  0  0  0
    3.1468   -0.6454    0.0000 C   0  0  0  0  0  0  0  0  0  0  0  0
   -0.7623    1.5969    0.0000 C   0  0  0  0  0  0  0  0  0  0  0  0
    1.8286    6.1197    0.0000 C   0  0  0  0  0  0  0  0  0  0  0  0
   -0.7623   -2.9031    0.0000 O   0  0  0  0  0  0  0  0  0  0  0  0
   -3.3759   -2.9031    0.0000 C   0  0  0  0  0  0  0  0  0  0  0  0
   -5.9668   -2.9031    0.0000 N   0  0  0  0  0  0  0  0  0  0  0  0
   -4.6563   -3.6531    0.0000 C   0  0  0  0  0  0  0  0  0  0  0  0
   -0.7623   -1.4031    0.0000 C   0  0  0  0  0  0  0  0  0  0  0  0
    7.0332    1.6197    0.0000 Cl  0  0  0  0  0  0  0  0  0  0  0  0
   -2.0577   -3.6531    0.0000 C   0  0  0  0  0  0  0  0  0  0  0  0
    4.4423   -1.3954    0.0000 C   0  0  0  0  0  0  0  0  0  0  0  0
    2.0786   -1.6985    0.0000 Cl  0  0  0  0  0  0  0  0  0  0  0  0
   -2.0577    0.8546    0.0000 C   0  0  0  0  0  0  0  0  0  0  0  0
    0.5332    0.8546    0.0000 C   0  0  0  0  0  0  0  0  0  0  0  0
   -2.0654   -0.6531    0.0000 C   0  0  0  0  0  0  0  0  0  0  0  0
    0.5332   -0.6454    0.0000 C   0  0  0  0  0  0  0  0  0  0  0  0
   -3.3759   -1.4031    0.0000 O   0  0  0  0  0  0  0  0  0  0  0  0
   -7.2623   -3.6531    0.0000 C   0  0  0  0  0  0  0  0  0  0  0  0
   -5.9668   -1.4031    0.0000 C   0  0  0  0  0  0  0  0  0  0  0  0
  2  1  1  0  0  0  0
  3  1  2  0  0  0  0
  4  5  1  0  0  0  0
  5  3  1  0  0  0  0
  6  2  2  0  0  0  0
  7  4  2  0  0  0  0
  8  2  1  0  0  0  0
  9  4  1  0  0  0  0
 10  3  1  0  0  0  0
 11  9  2  0  0  0  0
 12  7  1  0  0  0  0
 13  8  1  0  0  0  0
 14 10  2  0  0  0  0
 15 19  1  0  0  0  0
 16 21  1  0  0  0  0
 17 18  1  0  0  0  0
 18 16  1  0  0  0  0
 19 27  1  0  0  0  0
 20  9  1  0  0  0  0
 21 15  1  0  0  0  0
 22 11  1  0  0  0  0
 23 12  1  0  0  0  0
 24 13  2  0  0  0  0
 25 13  1  0  0  0  0
 26 24  1  0  0  0  0
 27 25  2  0  0  0  0
 28 16  1  0  0  0  0
 29 17  1  0  0  0  0
 30 17  1  0  0  0  0
 14  6  1  0  0  0  0
 26 19  2  0  0  0  0
 12 22  2  0  0  0  0
M  END
> <Value>
5.300000202445418

> <Relation>
=

> <SourceURI>
mol:CHEMBL101311

$$$$

Generated by Molecular Materials Informatics

 35 38  0  0  0  0  0  0  0  0999 V2000
   -0.4881   -5.6045    0.0000 O   0  0  0  0  0  0  0  0  0  0  0  0
    2.1100   -4.1045    0.0000 O   0  0  0  0  0  0  0  0  0  0  0  0
   -5.7038    2.3742    0.0000 O   0  0  0  0  0  0  0  0  0  0  0  0
   -3.7862    5.8488    0.0000 O   0  0  0  0  0  0  0  0  0  0  0  0
   -6.3276    5.3087    0.0000 O   0  0  0  0  0  0  0  0  0  0  0  0
   -4.4563   -3.4943    0.0000 N   0  0  0  0  0  0  0  0  0  0  0  0
   -5.4599   -4.6090    0.0000 N   0  0  0  0  0  0  0  0  0  0  0  0
   -1.7870   -3.3545    0.0000 N   0  0  0  0  0  0  0  0  0  0  0  0
   -3.0860   -4.1045    0.0000 C   0  0  0  0  0  0  0  0  0  0  0  0
   -4.7100   -5.9081    0.0000 C   0  0  0  0  0  0  0  0  0  0  0  0
   -3.2427   -5.5963    0.0000 C   0  0  0  0  0  0  0  0  0  0  0  0
   -4.7681   -2.0273    0.0000 C   0  0  0  0  0  0  0  0  0  0  0  0
   -5.3201   -7.2784    0.0000 C   0  0  0  0  0  0  0  0  0  0  0  0
    0.8110   -1.8546    0.0000 C   0  0  0  0  0  0  0  0  0  0  0  0
   -0.4881   -4.1045    0.0000 C   0  0  0  0  0  0  0  0  0  0  0  0
    0.8110   -3.3545    0.0000 C   0  0  0  0  0  0  0  0  0  0  0  0
    2.1100   -1.1046    0.0000 C   0  0  0  0  0  0  0  0  0  0  0  0
    2.1100    0.3954    0.0000 C   0  0  0  0  0  0  0  0  0  0  0  0
   -6.1946   -1.5637    0.0000 C   0  0  0  0  0  0  0  0  0  0  0  0
   -3.6534   -1.0235    0.0000 C   0  0  0  0  0  0  0  0  0  0  0  0
   -0.4881   -1.1046    0.0000 C   0  0  0  0  0  0  0  0  0  0  0  0
    3.4089   -1.8546    0.0000 C   0  0  0  0  0  0  0  0  0  0  0  0
   -5.3919    0.9072    0.0000 C   0  0  0  0  0  0  0  0  0  0  0  0
   -6.5066   -0.0966    0.0000 C   0  0  0  0  0  0  0  0  0  0  0  0
   -3.9653    0.4435    0.0000 C   0  0  0  0  0  0  0  0  0  0  0  0
    0.8110    1.1453    0.0000 C   0  0  0  0  0  0  0  0  0  0  0  0
   -5.9301   -8.6487    0.0000 C   0  0  0  0  0  0  0  0  0  0  0  0
   -3.9498   -7.8884    0.0000 C   0  0  0  0  0  0  0  0  0  0  0  0
   -6.6905   -6.6683    0.0000 C   0  0  0  0  0  0  0  0  0  0  0  0
   -0.4881    0.3954    0.0000 C   0  0  0  0  0  0  0  0  0  0  0  0
    3.4089    1.1453    0.0000 C   0  0  0  0  0  0  0  0  0  0  0  0
    4.7080   -1.1046    0.0000 C   0  0  0  0  0  0  0  0  0  0  0  0
    4.7080    0.3954    0.0000 C   0  0  0  0  0  0  0  0  0  0  0  0
   -4.5891    3.3780    0.0000 C   0  0  0  0  0  0  0  0  0  0  0  0
   -4.9009    4.8451    0.0000 C   0  0  0  0  0  0  0  0  0  0  0  0
  1 15  2  0  0  0  0
  2 16  2  0  0  0  0
  3 23  1  0  0  0  0
  3 34  1  0  0  0  0
  4 35  2  0  0  0  0
  5 35  1  0  0  0  0
  6  7  1  0  0  0  0
  6  9  1  0  0  0  0
  6 12  1  0  0  0  0
  7 10  2  0  0  0  0
  8  9  1  0  0  0  0
  8 15  1  0  0  0  0
  9 11  2  0  0  0  0
 10 11  1  0  0  0  0
 10 13  1  0  0  0  0
 12 19  2  0  0  0  0
 12 20  1  0  0  0  0
 13 27  1  0  0  0  0
 13 28  1  0  0  0  0
 13 29  1  0  0  0  0
 14 16  1  0  0  0  0
 14 17  1  0  0  0  0
 14 21  2  0  0  0  0
 15 16  1  0  0  0  0
 17 18  1  0  0  0  0
 17 22  2  0  0  0  0
 18 26  1  0  0  0  0
 18 31  2  0  0  0  0
 19 24  1  0  0  0  0
 20 25  2  0  0  0  0
 21 30  1  0  0  0  0
 22 32  1  0  0  0  0
 23 24  2  0  0  0  0
 23 25  1  0  0  0  0
 26 30  2  0  0  0  0
 31 33  1  0  0  0  0
 32 33  2  0  0  0  0
 34 35  1  0  0  0  0
M  END
> <Value>
5.300000202445418

> <Relation>
<

> <SourceURI>
mol:CHEMBL2005699

$$$$

Generated by Molecular Materials Informatics

 38 41  0  0  0  0  0  0  0  0999 V2000
    0.4266    2.6001    0.0000 S   0  0  0  0  0  0  0  0  0  0  0  0
   -8.0841    2.6803    0.0000 O   0  0  0  0  0  0  0  0  0  0  0  0
    0.7386   -1.8671    0.0000 N   0  0  0  0  0  0  0  0  0  0  0  0
   -1.8595   -1.8671    0.0000 N   0  0  0  0  0  0  0  0  0  0  0  0
   -7.5439    0.1391    0.0000 N   0  0  0  0  0  0  0  0  0  0  0  0
  -10.0148    0.9420    0.0000 N   0  0  0  0  0  0  0  0  0  0  0  0
   16.3265    2.6328    0.0000 N   0  0  0  0  0  0  0  0  0  0  0  0
   -0.5605    0.3829    0.0000 C   0  0  0  0  0  0  0  0  0  0  0  0
    0.7386    1.1329    0.0000 C   0  0  0  0  0  0  0  0  0  0  0  0
   -1.6752    1.3865    0.0000 C   0  0  0  0  0  0  0  0  0  0  0  0
   -0.5605   -1.1171    0.0000 C   0  0  0  0  0  0  0  0  0  0  0  0
    2.0375    0.3829    0.0000 C   0  0  0  0  0  0  0  0  0  0  0  0
   -3.1424    1.0747    0.0000 C   0  0  0  0  0  0  0  0  0  0  0  0
   -1.0650    2.7568    0.0000 C   0  0  0  0  0  0  0  0  0  0  0  0
    2.0375   -1.1171    0.0000 C   0  0  0  0  0  0  0  0  0  0  0  0
   -3.6058   -0.3518    0.0000 C   0  0  0  0  0  0  0  0  0  0  0  0
   -4.1460    2.1894    0.0000 C   0  0  0  0  0  0  0  0  0  0  0  0
    3.3365    1.1329    0.0000 C   0  0  0  0  0  0  0  0  0  0  0  0
   -6.0767    0.4511    0.0000 C   0  0  0  0  0  0  0  0  0  0  0  0
   -5.0731   -0.6636    0.0000 C   0  0  0  0  0  0  0  0  0  0  0  0
   -5.6132    1.8776    0.0000 C   0  0  0  0  0  0  0  0  0  0  0  0
    4.6356    1.8828    0.0000 C   0  0  0  0  0  0  0  0  0  0  0  0
   -8.5475    1.2538    0.0000 C   0  0  0  0  0  0  0  0  0  0  0  0
    5.9346    2.6328    0.0000 C   0  0  0  0  0  0  0  0  0  0  0  0
  -11.0184    2.0567    0.0000 C   0  0  0  0  0  0  0  0  0  0  0  0
  -12.4856    1.7448    0.0000 C   0  0  0  0  0  0  0  0  0  0  0  0
  -10.5549    3.4832    0.0000 C   0  0  0  0  0  0  0  0  0  0  0  0
  -13.4892    2.8595    0.0000 C   0  0  0  0  0  0  0  0  0  0  0  0
    7.2335    1.8828    0.0000 C   0  0  0  0  0  0  0  0  0  0  0  0
  -11.5585    4.5979    0.0000 C   0  0  0  0  0  0  0  0  0  0  0  0
  -13.0258    4.2861    0.0000 C   0  0  0  0  0  0  0  0  0  0  0  0
    8.5326    2.6328    0.0000 C   0  0  0  0  0  0  0  0  0  0  0  0
  -14.9564    2.5476    0.0000 C   0  0  0  0  0  0  0  0  0  0  0  0
    9.8316    1.8828    0.0000 C   0  0  0  0  0  0  0  0  0  0  0  0
   11.1305    2.6328    0.0000 C   0  0  0  0  0  0  0  0  0  0  0  0
   12.4296    1.8828    0.0000 C   0  0  0  0  0  0  0  0  0  0  0  0
   13.7286    2.6328    0.0000 C   0  0  0  0  0  0  0  0  0  0  0  0
   15.0277    1.8828    0.0000 C   0  0  0  0  0  0  0  0  0  0  0  0
  1  9  1  0  0  0  0
  1 14  1  0  0  0  0
  2 23  2  0  0  0  0
  3 11  1  0  0  0  0
  3 15  2  0  0  0  0
  4 11  1  0  0  0  0
  5 19  1  0  0  0  0
  5 23  1  0  0  0  0
  6 23  1  0  0  0  0
  6 25  1  0  0  0  0
  7 38  1  0  0  0  0
  8  9  1  0  0  0  0
  8 10  1  0  0  0  0
  8 11  2  0  0  0  0
  9 12  2  0  0  0  0
 10 13  1  0  0  0  0
 10 14  2  0  0  0  0
 12 15  1  0  0  0  0
 12 18  1  0  0  0  0
 13 16  2  0  0  0  0
 13 17  1  0  0  0  0
 16 20  1  0  0  0  0
 17 21  2  0  0  0  0
 18 22  3  0  0  0  0
 19 20  2  0  0  0  0
 19 21  1  0  0  0  0
 22 24  1  0  0  0  0
 24 29  1  0  0  0  0
 25 26  2  0  0  0  0
 25 27  1  0  0  0  0
 26 28  1  0  0  0  0
 27 30  2  0  0  0  0
 28 31  2  0  0  0  0
 28 33  1  0  0  0  0
 29 32  1  0  0  0  0
 30 31  1  0  0  0  0
 32 34  1  0  0  0  0
 34 35  1  0  0  0  0
 35 36  1  0  0  0  0
 36 37  1  0  0  0  0
 37 38  1  0  0  0  0
M  END
> <Value>
5.800000874803203

> <Error>
0.0

> <Relation>
=

> <SourceURI>
mol:CHEMBL1978166

$$$$

Generated by Molecular Materials Informatics

 22 23  0  0  0  0  0  0  0  0999 V2000
   18.1601   -7.4586    0.0000 C   0  0  0  0  0  0  0  0  0  0  0  0
   18.1577   -8.9633    0.0000 C   0  0  0  0  0  0  0  0  0  0  0  0
   19.4543   -9.7141    0.0000 N   0  0  0  0  0  0  0  0  0  0  0  0
   20.7621   -8.9624    0.0000 C   0  0  0  0  0  0  0  0  0  0  0  0
   20.7564   -7.4512    0.0000 C   0  0  0  0  0  0  0  0  0  0  0  0
   19.4506   -6.7079    0.0000 C   0  0  0  0  0  0  0  0  0  0  0  0
   19.4435   -5.2079    0.0000 N   0  0  0  0  0  0  0  0  0  0  0  0
   22.0517   -6.6948    0.0000 C   0  0  0  0  0  0  0  0  0  0  0  0
   23.3453   -5.9457    0.0000 N   0  0  0  0  0  0  0  0  0  0  0  0
   22.0619   -9.7113    0.0000 O   0  0  0  0  0  0  0  0  0  0  0  0
   23.3602   -8.9601    0.0000 C   0  0  0  0  0  0  0  0  0  0  0  0
   24.6600   -9.7090    0.0000 C   0  0  0  0  0  0  0  0  0  0  0  0
   16.8577   -9.7115    0.0000 C   0  0  0  0  0  0  0  0  0  0  0  0
   15.5596   -8.9597    0.0000 N   0  0  0  0  0  0  0  0  0  0  0  0
   14.2596   -9.7077    0.0000 C   0  0  0  0  0  0  0  0  0  0  0  0
   12.9616   -8.9559    0.0000 C   0  0  0  0  0  0  0  0  0  0  0  0
   12.9676   -7.4588    0.0000 C   0  0  0  0  0  0  0  0  0  0  0  0
   11.6711   -6.7070    0.0000 C   0  0  0  0  0  0  0  0  0  0  0  0
   10.3691   -7.4552    0.0000 C   0  0  0  0  0  0  0  0  0  0  0  0
   10.3716   -8.9630    0.0000 N   0  0  0  0  0  0  0  0  0  0  0  0
   11.6692   -9.7081    0.0000 C   0  0  0  0  0  0  0  0  0  0  0  0
   16.8556  -11.2115    0.0000 O   0  0  0  0  0  0  0  0  0  0  0  0
 10 11  1  0  0  0  0
  5  6  2  0  0  0  0
 11 12  1  0  0  0  0
  6  1  1  0  0  0  0
  2 13  1  0  0  0  0
  1  2  2  0  0  0  0
 13 14  1  0  0  0  0
  6  7  1  0  0  0  0
 14 15  1  0  0  0  0
  3  4  2  0  0  0  0
 15 16  1  0  0  0  0
  5  8  1  0  0  0  0
 16 17  2  0  0  0  0
 17 18  1  0  0  0  0
  8  9  3  0  0  0  0
 18 19  2  0  0  0  0
  4  5  1  0  0  0  0
 19 20  1  0  0  0  0
  4 10  1  0  0  0  0
 20 21  2  0  0  0  0
 21 16  1  0  0  0  0
  2  3  1  0  0  0  0
 13 22  2  0  0  0  0
M  END
> <Value>
5.899998417198648

> <Relation>
<

> <SourceURI>
mol:CHEMBL209534

$$$$

Generated by Molecular Materials Informatics

 31 34  0  0  0  0  0  0  0  0999 V2000
    8.2077    8.2481    0.0000 F   0  0  0  0  0  0  0  0  0  0  0  0
    7.6586   10.2972    0.0000 F   0  0  0  0  0  0  0  0  0  0  0  0
    6.1586    7.6992    0.0000 F   0  0  0  0  0  0  0  0  0  0  0  0
    3.0115    6.7481    0.0000 O   0  0  0  0  0  0  0  0  0  0  0  0
   -2.3121   -1.9653    0.0000 N   0  0  0  0  0  0  0  0  0  0  0  0
   -3.1937   -0.7518    0.0000 N   0  0  0  0  0  0  0  0  0  0  0  0
    1.7126   -1.5018    0.0000 N   0  0  0  0  0  0  0  0  0  0  0  0
   -2.7755    1.8883    0.0000 N   0  0  0  0  0  0  0  0  0  0  0  0
    0.4135    6.7481    0.0000 N   0  0  0  0  0  0  0  0  0  0  0  0
    1.7126    8.9981    0.0000 N   0  0  0  0  0  0  0  0  0  0  0  0
   -0.8855   -0.0018    0.0000 C   0  0  0  0  0  0  0  0  0  0  0  0
   -0.8855   -1.5018    0.0000 C   0  0  0  0  0  0  0  0  0  0  0  0
    0.4135    0.7482    0.0000 C   0  0  0  0  0  0  0  0  0  0  0  0
   -2.3121    0.4618    0.0000 C   0  0  0  0  0  0  0  0  0  0  0  0
    0.4135    2.2482    0.0000 C   0  0  0  0  0  0  0  0  0  0  0  0
    0.4135   -2.2518    0.0000 C   0  0  0  0  0  0  0  0  0  0  0  0
    1.7126   -0.0018    0.0000 C   0  0  0  0  0  0  0  0  0  0  0  0
   -0.8855    2.9982    0.0000 C   0  0  0  0  0  0  0  0  0  0  0  0
    1.7126    2.9982    0.0000 C   0  0  0  0  0  0  0  0  0  0  0  0
    0.4135    5.2481    0.0000 C   0  0  0  0  0  0  0  0  0  0  0  0
   -2.7755   -3.3918    0.0000 C   0  0  0  0  0  0  0  0  0  0  0  0
    5.6097    9.7481    0.0000 C   0  0  0  0  0  0  0  0  0  0  0  0
   -0.8855    4.4981    0.0000 C   0  0  0  0  0  0  0  0  0  0  0  0
    1.7126    4.4981    0.0000 C   0  0  0  0  0  0  0  0  0  0  0  0
    6.9086    8.9981    0.0000 C   0  0  0  0  0  0  0  0  0  0  0  0
    3.0115    9.7481    0.0000 C   0  0  0  0  0  0  0  0  0  0  0  0
    4.3106    8.9981    0.0000 C   0  0  0  0  0  0  0  0  0  0  0  0
    1.7126    7.4981    0.0000 C   0  0  0  0  0  0  0  0  0  0  0  0
    5.6097   11.2481    0.0000 C   0  0  0  0  0  0  0  0  0  0  0  0
    3.0115   11.2481    0.0000 C   0  0  0  0  0  0  0  0  0  0  0  0
    4.3106   11.9981    0.0000 C   0  0  0  0  0  0  0  0  0  0  0  0
  1 25  1  0  0  0  0
  2 25  1  0  0  0  0
  3 25  1  0  0  0  0
  4 28  2  0  0  0  0
  5  6  1  0  0  0  0
  5 12  1  0  0  0  0
  5 21  1  0  0  0  0
  6 14  2  0  0  0  0
  7 16  1  0  0  0  0
  7 17  2  0  0  0  0
  8 14  1  0  0  0  0
  9 20  1  0  0  0  0
  9 28  1  0  0  0  0
 10 26  1  0  0  0  0
 10 28  1  0  0  0  0
 11 12  1  0  0  0  0
 11 13  2  0  0  0  0
 11 14  1  0  0  0  0
 12 16  2  0  0  0  0
 13 15  1  0  0  0  0
 13 17  1  0  0  0  0
 15 18  2  0  0  0  0
 15 19  1  0  0  0  0
 18 23  1  0  0  0  0
 19 24  2  0  0  0  0
 20 23  2  0  0  0  0
 20 24  1  0  0  0  0
 22 25  1  0  0  0  0
 22 27  2  0  0  0  0
 22 29  1  0  0  0  0
 26 27  1  0  0  0  0
 26 30  2  0  0  0  0
 29 31  2  0  0  0  0
 30 31  1  0  0  0  0
M  END
> <Value>
5.899998417198648

> <Relation>
<

> <SourceURI>
mol:CHEMBL1964692

$$$$

Generated by Molecular Materials Informatics

 23 26  0  0  0  0  0  0  0  0999 V2000
    4.2607    3.0330    0.0000 I   0  0  0  0  0  0  0  0  0  0  0  0
    4.9525    0.4510    0.0000 N   0  0  0  0  0  0  0  0  0  0  0  0
    2.7354   -0.5361    0.0000 N   0  0  0  0  0  0  0  0  0  0  0  0
    4.2025   -0.8481    0.0000 N   0  0  0  0  0  0  0  0  0  0  0  0
   -2.7452    3.6692    0.0000 N   0  0  0  0  0  0  0  0  0  0  0  0
   -3.6268    2.4555    0.0000 N   0  0  0  0  0  0  0  0  0  0  0  0
   -3.2086   -0.1845    0.0000 N   0  0  0  0  0  0  0  0  0  0  0  0
    2.5785    0.9555    0.0000 C   0  0  0  0  0  0  0  0  0  0  0  0
    1.2796    1.7055    0.0000 C   0  0  0  0  0  0  0  0  0  0  0  0
   -1.3186    1.7055    0.0000 C   0  0  0  0  0  0  0  0  0  0  0  0
    3.9488    1.5657    0.0000 C   0  0  0  0  0  0  0  0  0  0  0  0
   -1.3186    3.2055    0.0000 C   0  0  0  0  0  0  0  0  0  0  0  0
   -0.0195    0.9555    0.0000 C   0  0  0  0  0  0  0  0  0  0  0  0
   -2.7452    1.2421    0.0000 C   0  0  0  0  0  0  0  0  0  0  0  0
    1.2796    3.2055    0.0000 C   0  0  0  0  0  0  0  0  0  0  0  0
   -0.0195    3.9555    0.0000 C   0  0  0  0  0  0  0  0  0  0  0  0
    6.4443    0.6077    0.0000 C   0  0  0  0  0  0  0  0  0  0  0  0
    7.3259   -0.6057    0.0000 C   0  0  0  0  0  0  0  0  0  0  0  0
    8.8178   -0.4490    0.0000 C   0  0  0  0  0  0  0  0  0  0  0  0
    6.7159   -1.9761    0.0000 C   0  0  0  0  0  0  0  0  0  0  0  0
    9.6994   -1.6625    0.0000 C   0  0  0  0  0  0  0  0  0  0  0  0
    7.5976   -3.1895    0.0000 C   0  0  0  0  0  0  0  0  0  0  0  0
    9.0894   -3.0328    0.0000 C   0  0  0  0  0  0  0  0  0  0  0  0
  1 11  1  0  0  0  0
  2  4  1  0  0  0  0
  2 11  1  0  0  0  0
  2 17  1  0  0  0  0
  3  4  2  0  0  0  0
  3  8  1  0  0  0  0
  5  6  1  0  0  0  0
  5 12  1  0  0  0  0
  6 14  2  0  0  0  0
  7 14  1  0  0  0  0
  8  9  1  0  0  0  0
  8 11  2  0  0  0  0
  9 13  1  0  0  0  0
  9 15  2  0  0  0  0
 10 12  1  0  0  0  0
 10 13  2  0  0  0  0
 10 14  1  0  0  0  0
 12 16  2  0  0  0  0
 15 16  1  0  0  0  0
 17 18  1  0  0  0  0
 18 19  2  0  0  0  0
 18 20  1  0  0  0  0
 19 21  1  0  0  0  0
 20 22  2  0  0  0  0
 21 23  2  0  0  0  0
 22 23  1  0  0  0  0
M  END
> <Value>
7.50003813440381

> <Relation>
=

> <SourceURI>
mol:CHEMBL1975128

$$$$

Generated by Molecular Materials Informatics

 16 18  0  0  0  0  0  0  0  0999 V2000
   13.1718   -3.7635    0.0000 C   0  0  0  0  0  0  0  0  0  0  0  0
   13.1696   -5.2633    0.0000 C   0  0  0  0  0  0  0  0  0  0  0  0
   14.4616   -6.0114    0.0000 N   0  0  0  0  0  0  0  0  0  0  0  0
   14.4579   -3.0155    0.0000 C   0  0  0  0  0  0  0  0  0  0  0  0
   15.7594   -3.7563    0.0000 C   0  0  0  0  0  0  0  0  0  0  0  0
   15.7603   -5.2633    0.0000 C   0  0  0  0  0  0  0  0  0  0  0  0
   17.1939   -5.7280    0.0000 S   0  0  0  0  0  0  0  0  0  0  0  0
   17.1925   -3.2896    0.0000 C   0  0  0  0  0  0  0  0  0  0  0  0
   18.0780   -4.5080    0.0000 C   0  0  0  0  0  0  0  0  0  0  0  0
   19.5723   -4.3487    0.0000 C   0  0  0  0  0  0  0  0  0  0  0  0
   20.1828   -2.9724    0.0000 N   0  0  0  0  0  0  0  0  0  0  0  0
   19.2878   -1.7536    0.0000 C   0  0  0  0  0  0  0  0  0  0  0  0
   17.7967   -1.9191    0.0000 N   0  0  0  0  0  0  0  0  0  0  0  0
   20.4527   -5.5569    0.0000 N   0  0  0  0  0  0  0  0  0  0  0  0
   11.8738   -6.0089    0.0000 C   0  0  0  0  0  0  0  0  0  0  0  0
   14.4510   -1.5204    0.0000 C   0  0  0  0  0  0  0  0  0  0  0  0
  8  5  1  0  0  0  0
  1  2  2  0  0  0  0
  5  4  2  0  0  0  0
  8  9  2  0  0  0  0
  4  1  1  0  0  0  0
  9 10  1  0  0  0  0
  5  6  1  0  0  0  0
 10 11  2  0  0  0  0
 11 12  1  0  0  0  0
  2  3  1  0  0  0  0
 12 13  2  0  0  0  0
 13  8  1  0  0  0  0
  3  6  2  0  0  0  0
 10 14  1  0  0  0  0
  6  7  1  0  0  0  0
  2 15  1  0  0  0  0
  7  9  1  0  0  0  0
  4 16  1  0  0  0  0
M  END
> <Value>
5.899998417198648

> <Relation>
<

> <SourceURI>
mol:CHEMBL504950

$$$$

Generated by Molecular Materials Informatics

 28 31  0  0  0  0  0  0  0  0999 V2000
   -4.4728   -2.0551    0.0000 C   0  0  0  0  0  0  0  0  0  0  0  0
   -6.7228   -3.0096    0.0000 C   0  0  0  0  0  0  0  0  0  0  0  0
   -6.8515   -1.5096    0.0000 N   0  0  0  0  0  0  0  0  0  0  0  0
    1.5576    3.1040    0.0000 C   0  0  0  0  0  0  0  0  0  0  0  0
   -5.2378   -3.3506    0.0000 C   0  0  0  0  0  0  0  0  0  0  0  0
   -2.9878   -2.0627    0.0000 C   0  0  0  0  0  0  0  0  0  0  0  0
   -5.4651   -0.9187    0.0000 C   0  0  0  0  0  0  0  0  0  0  0  0
    2.3000    1.8085    0.0000 N   0  0  0  0  0  0  0  0  0  0  0  0
    0.0576    3.1040    0.0000 N   0  0  0  0  0  0  0  0  0  0  0  0
    6.0349    3.1191    0.0000 C   0  0  0  0  0  0  0  0  0  0  0  0
   -2.2151   -0.7824    0.0000 C   0  0  0  0  0  0  0  0  0  0  0  0
    3.8076    1.8085    0.0000 C   0  0  0  0  0  0  0  0  0  0  0  0
    2.3000    4.4145    0.0000 O   0  0  0  0  0  0  0  0  0  0  0  0
    4.5349    3.1040    0.0000 C   0  0  0  0  0  0  0  0  0  0  0  0
   -7.8515   -3.9946    0.0000 O   0  0  0  0  0  0  0  0  0  0  0  0
    6.8000    1.8236    0.0000 C   0  0  0  0  0  0  0  0  0  0  0  0
   -2.9728    0.5282    0.0000 C   0  0  0  0  0  0  0  0  0  0  0  0
   -0.7228   -0.7900    0.0000 C   0  0  0  0  0  0  0  0  0  0  0  0
    6.0349    0.5054    0.0000 C   0  0  0  0  0  0  0  0  0  0  0  0
   -0.6924    1.8085    0.0000 C   0  0  0  0  0  0  0  0  0  0  0  0
    4.5500    0.5054    0.0000 C   0  0  0  0  0  0  0  0  0  0  0  0
   -2.2151    1.8085    0.0000 C   0  0  0  0  0  0  0  0  0  0  0  0
    0.0349    0.4904    0.0000 C   0  0  0  0  0  0  0  0  0  0  0  0
   -4.5106   -4.6536    0.0000 C   0  0  0  0  0  0  0  0  0  0  0  0
   -2.2455   -3.3733    0.0000 C   0  0  0  0  0  0  0  0  0  0  0  0
   -3.0182   -4.6687    0.0000 C   0  0  0  0  0  0  0  0  0  0  0  0
    6.7622    4.4145    0.0000 C   0  0  0  0  0  0  0  0  0  0  0  0
    8.2849    1.8236    0.0000 C   0  0  0  0  0  0  0  0  0  0  0  0
  2  5  1  0  0  0  0
  3  7  1  0  0  0  0
  4  9  1  0  0  0  0
  5  1  2  0  0  0  0
  6  1  1  0  0  0  0
  7  1  1  0  0  0  0
  8  4  1  0  0  0  0
  9 20  1  0  0  0  0
 10 14  2  0  0  0  0
 11  6  1  0  0  0  0
 12  8  1  0  0  0  0
 13  4  2  0  0  0  0
 14 12  1  0  0  0  0
 15  2  2  0  0  0  0
 16 19  2  0  0  0  0
 17 11  1  0  0  0  0
 18 11  2  0  0  0  0
 19 21  1  0  0  0  0
 20 23  2  0  0  0  0
 21 12  2  0  0  0  0
 22 17  2  0  0  0  0
 23 18  1  0  0  0  0
 24  5  1  0  0  0  0
 25  6  2  0  0  0  0
 26 25  1  0  0  0  0
 27 10  1  0  0  0  0
 28 16  1  0  0  0  0
  2  3  1  0  0  0  0
 24 26  2  0  0  0  0
 22 20  1  0  0  0  0
 10 16  1  0  0  0  0
M  END
> <Value>
5.899998417198648

> <Relation>
<

> <SourceURI>
mol:CHEMBL184847

$$$$

Generated by Molecular Materials Informatics

 30 34  0  0  0  0  0  0  0  0999 V2000
   -8.5311   -9.5635    0.0000 O   0  0  0  0  0  0  0  0  0  0  0  0
   -1.9887   -3.0492    0.0000 O   0  0  0  0  0  0  0  0  0  0  0  0
  -11.1129  -10.2554    0.0000 O   0  0  0  0  0  0  0  0  0  0  0  0
  -10.1551   -7.7599    0.0000 N   0  0  0  0  0  0  0  0  0  0  0  0
    1.8727    2.8548    0.0000 N   0  0  0  0  0  0  0  0  0  0  0  0
   -1.9122   -7.0170    0.0000 N   0  0  0  0  0  0  0  0  0  0  0  0
   -1.0618   -0.1959    0.0000 N   0  0  0  0  0  0  0  0  0  0  0  0
   -7.7811   -8.2645    0.0000 C   0  0  0  0  0  0  0  0  0  0  0  0
   -8.7847   -7.1497    0.0000 C   0  0  0  0  0  0  0  0  0  0  0  0
   -5.8504   -6.5261    0.0000 C   0  0  0  0  0  0  0  0  0  0  0  0
   -6.3138   -7.9526    0.0000 C   0  0  0  0  0  0  0  0  0  0  0  0
   -4.3831   -6.2141    0.0000 C   0  0  0  0  0  0  0  0  0  0  0  0
    3.2993    0.8914    0.0000 C   0  0  0  0  0  0  0  0  0  0  0  0
   -9.9982   -9.2517    0.0000 C   0  0  0  0  0  0  0  0  0  0  0  0
   -8.3213   -5.7232    0.0000 C   0  0  0  0  0  0  0  0  0  0  0  0
   -6.8540   -5.4114    0.0000 C   0  0  0  0  0  0  0  0  0  0  0  0
    1.8727    0.4277    0.0000 C   0  0  0  0  0  0  0  0  0  0  0  0
    3.2993    2.3914    0.0000 C   0  0  0  0  0  0  0  0  0  0  0  0
   -3.9195   -4.7875    0.0000 C   0  0  0  0  0  0  0  0  0  0  0  0
   -2.4524   -4.4757    0.0000 C   0  0  0  0  0  0  0  0  0  0  0  0
   -3.3793   -7.3288    0.0000 C   0  0  0  0  0  0  0  0  0  0  0  0
    0.9911    1.6414    0.0000 C   0  0  0  0  0  0  0  0  0  0  0  0
    1.4093   -0.9988    0.0000 C   0  0  0  0  0  0  0  0  0  0  0  0
    4.5983    0.1414    0.0000 C   0  0  0  0  0  0  0  0  0  0  0  0
    4.5983    3.1414    0.0000 C   0  0  0  0  0  0  0  0  0  0  0  0
   -0.0580   -1.3106    0.0000 C   0  0  0  0  0  0  0  0  0  0  0  0
   -1.4486   -5.5905    0.0000 C   0  0  0  0  0  0  0  0  0  0  0  0
    5.8974    0.8914    0.0000 C   0  0  0  0  0  0  0  0  0  0  0  0
   -0.5217   -2.7374    0.0000 C   0  0  0  0  0  0  0  0  0  0  0  0
    5.8974    2.3914    0.0000 C   0  0  0  0  0  0  0  0  0  0  0  0
  1  8  1  0  0  0  0
  1 14  1  0  0  0  0
  2 20  1  0  0  0  0
  2 29  1  0  0  0  0
  3 14  2  0  0  0  0
  4  9  1  0  0  0  0
  4 14  1  0  0  0  0
  5 18  1  0  0  0  0
  5 22  1  0  0  0  0
  6 21  2  0  0  0  0
  6 27  1  0  0  0  0
  7 26  1  0  0  0  0
  8  9  1  0  0  0  0
  8 11  2  0  0  0  0
  9 15  2  0  0  0  0
 10 11  1  0  0  0  0
 10 12  1  0  0  0  0
 10 16  2  0  0  0  0
 12 19  2  0  0  0  0
 12 21  1  0  0  0  0
 13 17  1  0  0  0  0
 13 18  1  0  0  0  0
 13 24  2  0  0  0  0
 15 16  1  0  0  0  0
 17 22  2  0  0  0  0
 17 23  1  0  0  0  0
 18 25  2  0  0  0  0
 19 20  1  0  0  0  0
 20 27  2  0  0  0  0
 23 26  1  0  0  0  0
 24 28  1  0  0  0  0
 25 30  1  0  0  0  0
 26 29  1  0  0  0  0
 28 30  2  0  0  0  0
M  END
> <Value>
5.899998417198648

> <Relation>
<

> <SourceURI>
mol:CHEMBL1987679

$$$$

Generated by Molecular Materials Informatics

 30 33  0  0  0  0  0  0  0  0999 V2000
    9.4899    5.7708    0.0000 F   0  0  0  0  0  0  0  0  0  0  0  0
    8.9410    7.8198    0.0000 F   0  0  0  0  0  0  0  0  0  0  0  0
    7.4410    5.2218    0.0000 F   0  0  0  0  0  0  0  0  0  0  0  0
    4.2939    4.2708    0.0000 O   0  0  0  0  0  0  0  0  0  0  0  0
   -1.0299   -4.4428    0.0000 N   0  0  0  0  0  0  0  0  0  0  0  0
   -1.9115   -3.2291    0.0000 N   0  0  0  0  0  0  0  0  0  0  0  0
    1.6957    4.2708    0.0000 N   0  0  0  0  0  0  0  0  0  0  0  0
    2.9948    6.5208    0.0000 N   0  0  0  0  0  0  0  0  0  0  0  0
    0.3967   -2.4791    0.0000 C   0  0  0  0  0  0  0  0  0  0  0  0
    1.6957   -1.7291    0.0000 C   0  0  0  0  0  0  0  0  0  0  0  0
    0.3967   -3.9791    0.0000 C   0  0  0  0  0  0  0  0  0  0  0  0
   -1.0299   -2.0157    0.0000 C   0  0  0  0  0  0  0  0  0  0  0  0
    1.6957   -0.2291    0.0000 C   0  0  0  0  0  0  0  0  0  0  0  0
    2.9948   -2.4791    0.0000 C   0  0  0  0  0  0  0  0  0  0  0  0
    1.6957   -4.7291    0.0000 C   0  0  0  0  0  0  0  0  0  0  0  0
    0.3967    0.5209    0.0000 C   0  0  0  0  0  0  0  0  0  0  0  0
    2.9948    0.5209    0.0000 C   0  0  0  0  0  0  0  0  0  0  0  0
    2.9948   -3.9791    0.0000 C   0  0  0  0  0  0  0  0  0  0  0  0
    6.8919    7.2708    0.0000 C   0  0  0  0  0  0  0  0  0  0  0  0
    8.1910    6.5208    0.0000 C   0  0  0  0  0  0  0  0  0  0  0  0
    1.6957    2.7708    0.0000 C   0  0  0  0  0  0  0  0  0  0  0  0
    4.2939    7.2708    0.0000 C   0  0  0  0  0  0  0  0  0  0  0  0
    0.3967    2.0209    0.0000 C   0  0  0  0  0  0  0  0  0  0  0  0
    2.9948    2.0209    0.0000 C   0  0  0  0  0  0  0  0  0  0  0  0
    5.5928    6.5208    0.0000 C   0  0  0  0  0  0  0  0  0  0  0  0
   -1.4933   -0.5891    0.0000 C   0  0  0  0  0  0  0  0  0  0  0  0
    2.9948    5.0208    0.0000 C   0  0  0  0  0  0  0  0  0  0  0  0
    6.8919    8.7708    0.0000 C   0  0  0  0  0  0  0  0  0  0  0  0
    4.2939    8.7708    0.0000 C   0  0  0  0  0  0  0  0  0  0  0  0
    5.5928    9.5208    0.0000 C   0  0  0  0  0  0  0  0  0  0  0  0
  1 20  1  0  0  0  0
  2 20  1  0  0  0  0
  3 20  1  0  0  0  0
  4 27  2  0  0  0  0
  5  6  1  0  0  0  0
  5 11  1  0  0  0  0
  6 12  2  0  0  0  0
  7 21  1  0  0  0  0
  7 27  1  0  0  0  0
  8 22  1  0  0  0  0
  8 27  1  0  0  0  0
  9 10  2  0  0  0  0
  9 11  1  0  0  0  0
  9 12  1  0  0  0  0
 10 13  1  0  0  0  0
 10 14  1  0  0  0  0
 11 15  2  0  0  0  0
 12 26  1  0  0  0  0
 13 16  2  0  0  0  0
 13 17  1  0  0  0  0
 14 18  2  0  0  0  0
 15 18  1  0  0  0  0
 16 23  1  0  0  0  0
 17 24  2  0  0  0  0
 19 20  1  0  0  0  0
 19 25  2  0  0  0  0
 19 28  1  0  0  0  0
 21 23  2  0  0  0  0
 21 24  1  0  0  0  0
 22 25  1  0  0  0  0
 22 29  2  0  0  0  0
 28 30  2  0  0  0  0
 29 30  1  0  0  0  0
M  END
> <Value>
5.899998417198648

> <Relation>
<

> <SourceURI>
mol:CHEMBL1970074

$$$$

Generated by Molecular Materials Informatics

 16 18  0  0  0  0  0  0  0  0999 V2000
   -4.4128   -0.0937    0.0000 O   0  0  0  0  0  0  0  0  0  0  0  0
   -2.0311    1.1197    0.0000 N   0  0  0  0  0  0  0  0  0  0  0  0
   -2.0311   -1.3072    0.0000 N   0  0  0  0  0  0  0  0  0  0  0  0
    0.6945   -1.5938    0.0000 N   0  0  0  0  0  0  0  0  0  0  0  0
   -0.6046    0.6562    0.0000 C   0  0  0  0  0  0  0  0  0  0  0  0
   -0.6046   -0.8437    0.0000 C   0  0  0  0  0  0  0  0  0  0  0  0
    1.9934    0.6562    0.0000 C   0  0  0  0  0  0  0  0  0  0  0  0
    0.6945    1.4062    0.0000 C   0  0  0  0  0  0  0  0  0  0  0  0
   -2.9128   -0.0937    0.0000 C   0  0  0  0  0  0  0  0  0  0  0  0
    1.9934   -0.8437    0.0000 C   0  0  0  0  0  0  0  0  0  0  0  0
    3.2925    1.4062    0.0000 C   0  0  0  0  0  0  0  0  0  0  0  0
    3.2925    2.9062    0.0000 C   0  0  0  0  0  0  0  0  0  0  0  0
    4.5916    0.6562    0.0000 C   0  0  0  0  0  0  0  0  0  0  0  0
    4.5916    3.6562    0.0000 C   0  0  0  0  0  0  0  0  0  0  0  0
    5.8907    1.4062    0.0000 C   0  0  0  0  0  0  0  0  0  0  0  0
    5.8907    2.9062    0.0000 C   0  0  0  0  0  0  0  0  0  0  0  0
  1  9  2  0  0  0  0
  2  5  1  0  0  0  0
  2  9  1  0  0  0  0
  3  6  1  0  0  0  0
  3  9  1  0  0  0  0
  4  6  2  0  0  0  0
  4 10  1  0  0  0  0
  5  6  1  0  0  0  0
  5  8  2  0  0  0  0
  7  8  1  0  0  0  0
  7 10  2  0  0  0  0
  7 11  1  0  0  0  0
 11 12  2  0  0  0  0
 11 13  1  0  0  0  0
 12 14  1  0  0  0  0
 13 15  2  0  0  0  0
 14 16  2  0  0  0  0
 15 16  1  0  0  0  0
M  END
> <Value>
5.899998417198648

> <Relation>
<

> <SourceURI>
mol:CHEMBL2003456

$$$$

Generated by Molecular Materials Informatics

 25 28  0  0  0  0  0  0  0  0999 V2000
    5.6321  -18.9127    0.0000 C   0  0  0  0  0  0  0  0  0  0  0  0
    5.6244  -20.4127    0.0000 C   0  0  0  0  0  0  0  0  0  0  0  0
    4.3290  -18.1627    0.0000 C   0  0  0  0  0  0  0  0  0  0  0  0
    4.3290  -21.1778    0.0000 N   0  0  0  0  0  0  0  0  0  0  0  0
    6.9275  -18.1627    0.0000 C   0  0  0  0  0  0  0  0  0  0  0  0
    3.0335  -18.9127    0.0000 C   0  0  0  0  0  0  0  0  0  0  0  0
    3.0184  -20.4127    0.0000 C   0  0  0  0  0  0  0  0  0  0  0  0
    8.2229  -20.4354    0.0000 C   0  0  0  0  0  0  0  0  0  0  0  0
    9.5108  -21.1854    0.0000 C   0  0  0  0  0  0  0  0  0  0  0  0
    6.9199  -21.1778    0.0000 C   0  0  0  0  0  0  0  0  0  0  0  0
    9.4957  -22.6854    0.0000 C   0  0  0  0  0  0  0  0  0  0  0  0
    8.2229  -18.9355    0.0000 C   0  0  0  0  0  0  0  0  0  0  0  0
    1.7230  -21.1778    0.0000 C   0  0  0  0  0  0  0  0  0  0  0  0
    1.7230  -18.1627    0.0000 C   0  0  0  0  0  0  0  0  0  0  0  0
   10.7911  -23.4505    0.0000 C   0  0  0  0  0  0  0  0  0  0  0  0
    4.3290  -16.6627    0.0000 O   0  0  0  0  0  0  0  0  0  0  0  0
   10.8062  -20.4505    0.0000 C   0  0  0  0  0  0  0  0  0  0  0  0
    6.9275  -16.6627    0.0000 O   0  0  0  0  0  0  0  0  0  0  0  0
    0.4276  -20.4278    0.0000 C   0  0  0  0  0  0  0  0  0  0  0  0
   12.1016  -22.7082    0.0000 C   0  0  0  0  0  0  0  0  0  0  0  0
    8.2002  -23.4354    0.0000 Cl  0  0  0  0  0  0  0  0  0  0  0  0
    0.4276  -18.9278    0.0000 C   0  0  0  0  0  0  0  0  0  0  0  0
   12.1016  -21.2005    0.0000 C   0  0  0  0  0  0  0  0  0  0  0  0
   13.3971  -23.4582    0.0000 Cl  0  0  0  0  0  0  0  0  0  0  0  0
   -0.8679  -21.1778    0.0000 Cl  0  0  0  0  0  0  0  0  0  0  0  0
  2  1  1  0  0  0  0
  3  1  2  0  0  0  0
  4  2  2  0  0  0  0
  5  1  1  0  0  0  0
  6  3  1  0  0  0  0
  7  6  2  0  0  0  0
  8 12  1  0  0  0  0
  9  8  1  0  0  0  0
 10  2  1  0  0  0  0
 11  9  2  0  0  0  0
 12  5  1  0  0  0  0
 13  7  1  0  0  0  0
 14  6  1  0  0  0  0
 15 11  1  0  0  0  0
 16  3  1  0  0  0  0
 17  9  1  0  0  0  0
 18  5  2  0  0  0  0
 19 22  1  0  0  0  0
 20 23  1  0  0  0  0
 21 11  1  0  0  0  0
 22 14  2  0  0  0  0
 23 17  2  0  0  0  0
 24 20  1  0  0  0  0
 25 19  1  0  0  0  0
  8 10  1  0  0  0  0
  7  4  1  0  0  0  0
 13 19  2  0  0  0  0
 20 15  2  0  0  0  0
M  END
> <Value>
5.899998417198648

> <Relation>
<

> <SourceURI>
mol:CHEMBL326282

$$$$

Generated by Molecular Materials Informatics

 33 36  0  0  0  0  0  0  0  0999 V2000
   -2.0266    2.5670    0.0000 F   0  0  0  0  0  0  0  0  0  0  0  0
   -6.5266   -0.0310    0.0000 F   0  0  0  0  0  0  0  0  0  0  0  0
    3.0807    2.9690    0.0000 O   0  0  0  0  0  0  0  0  0  0  0  0
    4.9099   -8.2449    0.0000 O   0  0  0  0  0  0  0  0  0  0  0  0
    1.7816   -0.7810    0.0000 N   0  0  0  0  0  0  0  0  0  0  0  0
    0.3550    1.1824    0.0000 N   0  0  0  0  0  0  0  0  0  0  0  0
    0.8952   -3.7859    0.0000 N   0  0  0  0  0  0  0  0  0  0  0  0
    4.3797    0.7190    0.0000 N   0  0  0  0  0  0  0  0  0  0  0  0
   -1.0355   -5.5243    0.0000 N   0  0  0  0  0  0  0  0  0  0  0  0
    1.4354   -6.3272    0.0000 N   0  0  0  0  0  0  0  0  0  0  0  0
    0.3550   -1.2447    0.0000 C   0  0  0  0  0  0  0  0  0  0  0  0
   -0.5266   -0.0310    0.0000 C   0  0  0  0  0  0  0  0  0  0  0  0
    1.7816    0.7190    0.0000 C   0  0  0  0  0  0  0  0  0  0  0  0
   -0.1084   -2.6712    0.0000 C   0  0  0  0  0  0  0  0  0  0  0  0
   -2.0266   -0.0310    0.0000 C   0  0  0  0  0  0  0  0  0  0  0  0
    3.0807    1.4690    0.0000 C   0  0  0  0  0  0  0  0  0  0  0  0
    3.0807   -1.5310    0.0000 C   0  0  0  0  0  0  0  0  0  0  0  0
   -2.7766    1.2679    0.0000 C   0  0  0  0  0  0  0  0  0  0  0  0
   -2.7766   -1.3301    0.0000 C   0  0  0  0  0  0  0  0  0  0  0  0
   -1.5757   -2.9830    0.0000 C   0  0  0  0  0  0  0  0  0  0  0  0
    4.3797   -0.7810    0.0000 C   0  0  0  0  0  0  0  0  0  0  0  0
    0.4316   -5.2125    0.0000 C   0  0  0  0  0  0  0  0  0  0  0  0
   -4.2766    1.2679    0.0000 C   0  0  0  0  0  0  0  0  0  0  0  0
   -4.2766   -1.3301    0.0000 C   0  0  0  0  0  0  0  0  0  0  0  0
   -5.0266   -0.0310    0.0000 C   0  0  0  0  0  0  0  0  0  0  0  0
   -2.0393   -4.4098    0.0000 C   0  0  0  0  0  0  0  0  0  0  0  0
    1.7816    3.7190    0.0000 C   0  0  0  0  0  0  0  0  0  0  0  0
    2.9027   -6.0154    0.0000 C   0  0  0  0  0  0  0  0  0  0  0  0
    3.9063   -7.1301    0.0000 C   0  0  0  0  0  0  0  0  0  0  0  0
    0.4825    2.9690    0.0000 C   0  0  0  0  0  0  0  0  0  0  0  0
    1.7816    5.2190    0.0000 C   0  0  0  0  0  0  0  0  0  0  0  0
    5.0210   -6.1263    0.0000 C   0  0  0  0  0  0  0  0  0  0  0  0
    2.7916   -8.1338    0.0000 C   0  0  0  0  0  0  0  0  0  0  0  0
  1 18  1  0  0  0  0
  2 25  1  0  0  0  0
  3 16  1  0  0  0  0
  3 27  1  0  0  0  0
  4 29  1  0  0  0  0
  5 11  1  0  0  0  0
  5 13  1  0  0  0  0
  5 17  1  0  0  0  0
  6 12  1  0  0  0  0
  6 13  2  0  0  0  0
  7 14  1  0  0  0  0
  7 22  2  0  0  0  0
  8 16  2  0  0  0  0
  8 21  1  0  0  0  0
  9 22  1  0  0  0  0
  9 26  2  0  0  0  0
 10 22  1  0  0  0  0
 10 28  1  0  0  0  0
 11 12  2  0  0  0  0
 11 14  1  0  0  0  0
 12 15  1  0  0  0  0
 13 16  1  0  0  0  0
 14 20  2  0  0  0  0
 15 18  1  0  0  0  0
 15 19  2  0  0  0  0
 17 21  2  0  0  0  0
 18 23  2  0  0  0  0
 19 24  1  0  0  0  0
 20 26  1  0  0  0  0
 23 25  1  0  0  0  0
 24 25  2  0  0  0  0
 27 30  1  0  0  0  0
 27 31  1  0  0  0  0
 28 29  1  0  0  0  0
 29 32  1  0  0  0  0
 29 33  1  0  0  0  0
M  END
> <Value>
5.899998417198648

> <Relation>
<

> <SourceURI>
mol:CHEMBL1984700

$$$$

Generated by Molecular Materials Informatics

 24 26  0  0  0  0  0  0  0  0999 V2000
    2.0889   -1.9066    0.0000 Cl  0  0  0  0  0  0  0  0  0  0  0  0
    4.6869   -0.4066    0.0000 Cl  0  0  0  0  0  0  0  0  0  0  0  0
   -0.6367    2.3068    0.0000 S   0  0  0  0  0  0  0  0  0  0  0  0
   -3.7683   -0.2057    0.0000 O   0  0  0  0  0  0  0  0  0  0  0  0
    1.3708   -2.3497    0.0000 O   0  0  0  0  0  0  0  0  0  0  0  0
   -1.1002   -1.5468    0.0000 N   0  0  0  0  0  0  0  0  0  0  0  0
   -3.7683    2.3923    0.0000 N   0  0  0  0  0  0  0  0  0  0  0  0
    0.7898    0.3434    0.0000 C   0  0  0  0  0  0  0  0  0  0  0  0
   -0.6367   -0.1202    0.0000 C   0  0  0  0  0  0  0  0  0  0  0  0
    0.7898    1.8434    0.0000 C   0  0  0  0  0  0  0  0  0  0  0  0
   -1.5183    1.0934    0.0000 C   0  0  0  0  0  0  0  0  0  0  0  0
    2.0889   -0.4066    0.0000 C   0  0  0  0  0  0  0  0  0  0  0  0
    3.3880    0.3434    0.0000 C   0  0  0  0  0  0  0  0  0  0  0  0
    2.0889    2.5934    0.0000 C   0  0  0  0  0  0  0  0  0  0  0  0
   -3.0183    1.0934    0.0000 C   0  0  0  0  0  0  0  0  0  0  0  0
    3.3880    1.8434    0.0000 C   0  0  0  0  0  0  0  0  0  0  0  0
   -0.0965   -2.6615    0.0000 C   0  0  0  0  0  0  0  0  0  0  0  0
   -0.5602   -4.0881    0.0000 C   0  0  0  0  0  0  0  0  0  0  0  0
    0.4437   -5.2028    0.0000 C   0  0  0  0  0  0  0  0  0  0  0  0
   -2.0272   -4.3999    0.0000 C   0  0  0  0  0  0  0  0  0  0  0  0
   -0.0200   -6.6293    0.0000 C   0  0  0  0  0  0  0  0  0  0  0  0
   -2.4909   -5.8266    0.0000 C   0  0  0  0  0  0  0  0  0  0  0  0
   -1.4871   -6.9413    0.0000 C   0  0  0  0  0  0  0  0  0  0  0  0
   -1.9507   -8.3679    0.0000 C   0  0  0  0  0  0  0  0  0  0  0  0
  1 12  1  0  0  0  0
  2 13  1  0  0  0  0
  3 10  1  0  0  0  0
  3 11  1  0  0  0  0
  4 15  2  0  0  0  0
  5 17  2  0  0  0  0
  6  9  1  0  0  0  0
  6 17  1  0  0  0  0
  7 15  1  0  0  0  0
  8  9  1  0  0  0  0
  8 10  1  0  0  0  0
  8 12  2  0  0  0  0
  9 11  2  0  0  0  0
 10 14  2  0  0  0  0
 11 15  1  0  0  0  0
 12 13  1  0  0  0  0
 13 16  2  0  0  0  0
 14 16  1  0  0  0  0
 17 18  1  0  0  0  0
 18 19  2  0  0  0  0
 18 20  1  0  0  0  0
 19 21  1  0  0  0  0
 20 22  2  0  0  0  0
 21 23  2  0  0  0  0
 22 23  1  0  0  0  0
 23 24  1  0  0  0  0
M  END
> <Value>
5.899998417198648

> <Relation>
<

> <SourceURI>
mol:CHEMBL1965131

$$$$

Generated by Molecular Materials Informatics

 25 26  0  0  0  0  0  0  0  0999 V2000
   -4.6116   -1.1250    0.0000 Cl  0  0  0  0  0  0  0  0  0  0  0  0
   -0.7145   -7.8750    0.0000 S   0  0  0  0  0  0  0  0  0  0  0  0
   -2.0134    0.3750    0.0000 O   0  0  0  0  0  0  0  0  0  0  0  0
   -2.0134   -7.1250    0.0000 O   0  0  0  0  0  0  0  0  0  0  0  0
   -1.4645   -9.1741    0.0000 O   0  0  0  0  0  0  0  0  0  0  0  0
    1.8837   -3.3750    0.0000 O   0  0  0  0  0  0  0  0  0  0  0  0
   -0.7145   -1.8750    0.0000 N   0  0  0  0  0  0  0  0  0  0  0  0
    0.5846   -5.6250    0.0000 N   0  0  0  0  0  0  0  0  0  0  0  0
    0.0355   -6.5759    0.0000 N   0  0  0  0  0  0  0  0  0  0  0  0
   -4.6116   -4.1250    0.0000 N   0  0  0  0  0  0  0  0  0  0  0  0
    0.5846   -8.6250    0.0000 C   0  0  0  0  0  0  0  0  0  0  0  0
   -0.7145   -3.3750    0.0000 C   0  0  0  0  0  0  0  0  0  0  0  0
    1.8837   -7.8750    0.0000 C   0  0  0  0  0  0  0  0  0  0  0  0
   -2.0134   -1.1250    0.0000 C   0  0  0  0  0  0  0  0  0  0  0  0
   -3.3125   -1.8750    0.0000 C   0  0  0  0  0  0  0  0  0  0  0  0
   -3.3125   -3.3750    0.0000 C   0  0  0  0  0  0  0  0  0  0  0  0
    0.5846   -4.1250    0.0000 C   0  0  0  0  0  0  0  0  0  0  0  0
   -2.0134   -4.1250    0.0000 C   0  0  0  0  0  0  0  0  0  0  0  0
    1.8837   -6.3750    0.0000 C   0  0  0  0  0  0  0  0  0  0  0  0
    0.5846  -10.1250    0.0000 C   0  0  0  0  0  0  0  0  0  0  0  0
    3.1826   -8.6250    0.0000 C   0  0  0  0  0  0  0  0  0  0  0  0
    1.8837  -10.8750    0.0000 C   0  0  0  0  0  0  0  0  0  0  0  0
    3.1826  -10.1250    0.0000 C   0  0  0  0  0  0  0  0  0  0  0  0
   -0.7145    1.1250    0.0000 C   0  0  0  0  0  0  0  0  0  0  0  0
   -0.7145    2.6250    0.0000 C   0  0  0  0  0  0  0  0  0  0  0  0
  1 15  1  0  0  0  0
  2  4  2  0  0  0  0
  2  5  2  0  0  0  0
  2  9  1  0  0  0  0
  2 11  1  0  0  0  0
  3 14  1  0  0  0  0
  3 24  1  0  0  0  0
  6 17  2  0  0  0  0
  7 12  1  0  0  0  0
  7 14  2  0  0  0  0
  8 17  1  0  0  0  0
  8 19  1  0  0  0  0
 10 16  1  0  0  0  0
 11 13  1  0  0  0  0
 11 20  2  0  0  0  0
 12 17  1  0  0  0  0
 12 18  2  0  0  0  0
 13 19  1  0  0  0  0
 13 21  2  0  0  0  0
 14 15  1  0  0  0  0
 15 16  2  0  0  0  0
 16 18  1  0  0  0  0
 20 22  1  0  0  0  0
 21 23  1  0  0  0  0
 22 23  2  0  0  0  0
 24 25  1  0  0  0  0
M  END
> <Value>
5.899998417198648

> <Relation>
<

> <SourceURI>
mol:CHEMBL2006581

$$$$

Generated by Molecular Materials Informatics

 24 27  0  0  0  0  0  0  0  0999 V2000
    2.8368   -4.0403    0.0000 F   0  0  0  0  0  0  0  0  0  0  0  0
    3.7184   -3.7540    0.0000 O   0  0  0  0  0  0  0  0  0  0  0  0
    0.2386    0.4597    0.0000 N   0  0  0  0  0  0  0  0  0  0  0  0
   -2.4870    0.1731    0.0000 N   0  0  0  0  0  0  0  0  0  0  0  0
   -3.3687   -1.0404    0.0000 N   0  0  0  0  0  0  0  0  0  0  0  0
    0.2386   -2.5403    0.0000 C   0  0  0  0  0  0  0  0  0  0  0  0
    1.5377   -1.7903    0.0000 C   0  0  0  0  0  0  0  0  0  0  0  0
   -1.0605   -1.7903    0.0000 C   0  0  0  0  0  0  0  0  0  0  0  0
    1.5377   -0.2903    0.0000 C   0  0  0  0  0  0  0  0  0  0  0  0
   -1.0605   -0.2903    0.0000 C   0  0  0  0  0  0  0  0  0  0  0  0
    0.2386   -4.0403    0.0000 C   0  0  0  0  0  0  0  0  0  0  0  0
    2.8368   -2.5403    0.0000 C   0  0  0  0  0  0  0  0  0  0  0  0
   -2.4870   -2.2540    0.0000 C   0  0  0  0  0  0  0  0  0  0  0  0
    4.1357   -0.2903    0.0000 C   0  0  0  0  0  0  0  0  0  0  0  0
    2.8368    0.4597    0.0000 C   0  0  0  0  0  0  0  0  0  0  0  0
    4.1357   -1.7903    0.0000 C   0  0  0  0  0  0  0  0  0  0  0  0
    1.5377   -4.7903    0.0000 C   0  0  0  0  0  0  0  0  0  0  0  0
   -1.0605   -4.7903    0.0000 C   0  0  0  0  0  0  0  0  0  0  0  0
   -2.9505   -3.6805    0.0000 C   0  0  0  0  0  0  0  0  0  0  0  0
    1.5377   -6.2903    0.0000 C   0  0  0  0  0  0  0  0  0  0  0  0
    4.9306    0.9816    0.0000 C   0  0  0  0  0  0  0  0  0  0  0  0
    5.6348   -0.2382    0.0000 C   0  0  0  0  0  0  0  0  0  0  0  0
   -1.0605   -6.2903    0.0000 C   0  0  0  0  0  0  0  0  0  0  0  0
    0.2386   -7.0403    0.0000 C   0  0  0  0  0  0  0  0  0  0  0  0
  1 17  1  0  0  0  0
  2 12  2  0  0  0  0
  3  9  1  0  0  0  0
  3 10  1  0  0  0  0
  4  5  1  0  0  0  0
  4 10  1  0  0  0  0
  5 13  2  0  0  0  0
  6  7  1  0  0  0  0
  6  8  1  0  0  0  0
  6 11  1  0  0  0  0
  7  9  2  0  0  0  0
  7 12  1  0  0  0  0
  8 10  2  0  0  0  0
  8 13  1  0  0  0  0
  9 15  1  0  0  0  0
 11 17  1  0  0  0  0
 11 18  2  0  0  0  0
 12 16  1  0  0  0  0
 13 19  1  0  0  0  0
 14 15  1  0  0  0  0
 14 16  1  0  0  0  0
 14 21  1  0  0  0  0
 14 22  1  0  0  0  0
 17 20  2  0  0  0  0
 18 23  1  0  0  0  0
 20 24  1  0  0  0  0
 23 24  2  0  0  0  0
M  END
> <Value>
5.899998417198648

> <Relation>
<

> <SourceURI>
mol:CHEMBL1966703

$$$$

Generated by Molecular Materials Informatics

 20 22  0  0  0  0  0  0  0  0999 V2000
   -0.2814    1.7943    0.0000 O   0  0  0  0  0  0  0  0  0  0  0  0
    0.7730   -2.4004    0.0000 N   0  0  0  0  0  0  0  0  0  0  0  0
   -4.1623    1.7361    0.0000 N   0  0  0  0  0  0  0  0  0  0  0  0
   -2.8634    2.4861    0.0000 N   0  0  0  0  0  0  0  0  0  0  0  0
   -4.8541   -0.8457    0.0000 N   0  0  0  0  0  0  0  0  0  0  0  0
   -2.3587    0.1121    0.0000 C   0  0  0  0  0  0  0  0  0  0  0  0
   -3.8505    0.2690    0.0000 C   0  0  0  0  0  0  0  0  0  0  0  0
   -0.1086   -1.1868    0.0000 C   0  0  0  0  0  0  0  0  0  0  0  0
   -1.7487    1.4825    0.0000 C   0  0  0  0  0  0  0  0  0  0  0  0
   -1.6087   -1.1868    0.0000 C   0  0  0  0  0  0  0  0  0  0  0  0
    2.1995   -1.9368    0.0000 C   0  0  0  0  0  0  0  0  0  0  0  0
    2.1995   -0.4368    0.0000 C   0  0  0  0  0  0  0  0  0  0  0  0
    0.7730    0.0267    0.0000 C   0  0  0  0  0  0  0  0  0  0  0  0
    3.4986   -2.6868    0.0000 C   0  0  0  0  0  0  0  0  0  0  0  0
    3.4986    0.3132    0.0000 C   0  0  0  0  0  0  0  0  0  0  0  0
   -6.3214   -0.5339    0.0000 C   0  0  0  0  0  0  0  0  0  0  0  0
    4.7977   -1.9368    0.0000 C   0  0  0  0  0  0  0  0  0  0  0  0
    4.7977   -0.4368    0.0000 C   0  0  0  0  0  0  0  0  0  0  0  0
   -7.3250   -1.6486    0.0000 C   0  0  0  0  0  0  0  0  0  0  0  0
   -6.7850    0.8927    0.0000 C   0  0  0  0  0  0  0  0  0  0  0  0
  1  9  2  0  0  0  0
  2  8  1  0  0  0  0
  2 11  1  0  0  0  0
  3  4  1  0  0  0  0
  3  7  2  0  0  0  0
  4  9  1  0  0  0  0
  5  7  1  0  0  0  0
  5 16  1  0  0  0  0
  6  7  1  0  0  0  0
  6  9  1  0  0  0  0
  6 10  2  0  0  0  0
 10  8  1  0  0  0  0
  8 13  2  0  0  0  0
 11 12  1  0  0  0  0
 11 14  2  0  0  0  0
 12 13  1  0  0  0  0
 12 15  2  0  0  0  0
 14 17  1  0  0  0  0
 15 18  1  0  0  0  0
 16 19  1  0  0  0  0
 16 20  1  0  0  0  0
 17 18  2  0  0  0  0
M  END
> <Value>
5.300000202445418

> <Relation>
<

> <SourceURI>
mol:CHEMBL1988692

$$$$

Generated by Molecular Materials Informatics

 17 19  0  0  0  0  0  0  0  0999 V2000
   -4.6828    4.0237    0.0000 Cl  0  0  0  0  0  0  0  0  0  0  0  0
   -0.2811    3.0883    0.0000 N   0  0  0  0  0  0  0  0  0  0  0  0
   -0.8213   -1.8801    0.0000 N   0  0  0  0  0  0  0  0  0  0  0  0
   -2.2118    4.8266    0.0000 N   0  0  0  0  0  0  0  0  0  0  0  0
    1.9043   -2.1666    0.0000 N   0  0  0  0  0  0  0  0  0  0  0  0
    0.2591    5.6295    0.0000 N   0  0  0  0  0  0  0  0  0  0  0  0
   -0.8213    0.5468    0.0000 C   0  0  0  0  0  0  0  0  0  0  0  0
    0.6053    0.0834    0.0000 C   0  0  0  0  0  0  0  0  0  0  0  0
   -1.2849    1.9735    0.0000 C   0  0  0  0  0  0  0  0  0  0  0  0
    0.6053   -1.4166    0.0000 C   0  0  0  0  0  0  0  0  0  0  0  0
   -1.7029   -0.6666    0.0000 C   0  0  0  0  0  0  0  0  0  0  0  0
   -2.7520    2.2854    0.0000 C   0  0  0  0  0  0  0  0  0  0  0  0
   -0.7448    4.5148    0.0000 C   0  0  0  0  0  0  0  0  0  0  0  0
   -3.2157    3.7119    0.0000 C   0  0  0  0  0  0  0  0  0  0  0  0
    1.9043    0.8334    0.0000 C   0  0  0  0  0  0  0  0  0  0  0  0
    3.2033    0.0834    0.0000 C   0  0  0  0  0  0  0  0  0  0  0  0
    3.2033   -1.4166    0.0000 C   0  0  0  0  0  0  0  0  0  0  0  0
  1 14  1  0  0  0  0
  2  9  2  0  0  0  0
  2 13  1  0  0  0  0
  3 10  1  0  0  0  0
  3 11  1  0  0  0  0
  4 13  2  0  0  0  0
  4 14  1  0  0  0  0
  5 10  2  0  0  0  0
  5 17  1  0  0  0  0
  6 13  1  0  0  0  0
  7  8  1  0  0  0  0
  7  9  1  0  0  0  0
  7 11  2  0  0  0  0
  8 10  1  0  0  0  0
  8 15  2  0  0  0  0
  9 12  1  0  0  0  0
 12 14  2  0  0  0  0
 15 16  1  0  0  0  0
 16 17  2  0  0  0  0
M  END
> <Value>
6.599997654072044

> <Relation>
=

> <SourceURI>
mol:CHEMBL2007574

$$$$

Generated by Molecular Materials Informatics

 24 26  0  0  0  0  0  0  0  0999 V2000
   11.0741    1.4062    0.0000 S   0  0  0  0  0  0  0  0  0  0  0  0
    5.8781    1.4062    0.0000 O   0  0  0  0  0  0  0  0  0  0  0  0
   12.3732    2.1562    0.0000 O   0  0  0  0  0  0  0  0  0  0  0  0
   10.3241    2.7053    0.0000 O   0  0  0  0  0  0  0  0  0  0  0  0
    3.2802   -1.5937    0.0000 N   0  0  0  0  0  0  0  0  0  0  0  0
   -4.5140    2.9062    0.0000 N   0  0  0  0  0  0  0  0  0  0  0  0
    9.7751    0.6563    0.0000 N   0  0  0  0  0  0  0  0  0  0  0  0
    0.6821    1.4062    0.0000 C   0  0  0  0  0  0  0  0  0  0  0  0
    1.9811    0.6563    0.0000 C   0  0  0  0  0  0  0  0  0  0  0  0
   -1.9159    1.4062    0.0000 C   0  0  0  0  0  0  0  0  0  0  0  0
   -1.9159    2.9062    0.0000 C   0  0  0  0  0  0  0  0  0  0  0  0
   -0.6170    0.6563    0.0000 C   0  0  0  0  0  0  0  0  0  0  0  0
    0.6821    2.9062    0.0000 C   0  0  0  0  0  0  0  0  0  0  0  0
    3.2802    1.4062    0.0000 C   0  0  0  0  0  0  0  0  0  0  0  0
   -0.6170    3.6562    0.0000 C   0  0  0  0  0  0  0  0  0  0  0  0
    4.5790    0.6563    0.0000 C   0  0  0  0  0  0  0  0  0  0  0  0
    1.9811   -0.8437    0.0000 C   0  0  0  0  0  0  0  0  0  0  0  0
   -3.2149    0.6563    0.0000 C   0  0  0  0  0  0  0  0  0  0  0  0
   -3.2149    3.6562    0.0000 C   0  0  0  0  0  0  0  0  0  0  0  0
    4.5790   -0.8437    0.0000 C   0  0  0  0  0  0  0  0  0  0  0  0
   -4.5140    1.4062    0.0000 C   0  0  0  0  0  0  0  0  0  0  0  0
    7.1771    0.6563    0.0000 C   0  0  0  0  0  0  0  0  0  0  0  0
    8.4760    1.4062    0.0000 C   0  0  0  0  0  0  0  0  0  0  0  0
   11.8241    0.1072    0.0000 C   0  0  0  0  0  0  0  0  0  0  0  0
  1  3  2  0  0  0  0
  1  4  2  0  0  0  0
  1  7  1  0  0  0  0
  1 24  1  0  0  0  0
  2 16  1  0  0  0  0
  2 22  1  0  0  0  0
  5 17  2  0  0  0  0
  5 20  1  0  0  0  0
  6 19  2  0  0  0  0
  6 21  1  0  0  0  0
  7 23  1  0  0  0  0
  8  9  1  0  0  0  0
  8 12  1  0  0  0  0
  8 13  2  0  0  0  0
  9 14  2  0  0  0  0
  9 17  1  0  0  0  0
 10 11  1  0  0  0  0
 10 12  2  0  0  0  0
 10 18  1  0  0  0  0
 11 15  2  0  0  0  0
 11 19  1  0  0  0  0
 13 15  1  0  0  0  0
 14 16  1  0  0  0  0
 16 20  2  0  0  0  0
 18 21  2  0  0  0  0
 22 23  1  0  0  0  0
M  END
> <Value>
5.899998417198648

> <Relation>
<

> <SourceURI>
mol:CHEMBL1964804

$$$$

Generated by Molecular Materials Informatics

 23 25  0  0  0  0  0  0  0  0999 V2000
    2.7404   -0.8945    0.0000 S   0  0  0  0  0  0  0  0  0  0  0  0
   -0.1047   -3.5347    0.0000 O   0  0  0  0  0  0  0  0  0  0  0  0
    0.7182   -9.0160    0.0000 O   0  0  0  0  0  0  0  0  0  0  0  0
    3.7019   -8.7023    0.0000 O   0  0  0  0  0  0  0  0  0  0  0  0
    0.3135   -0.8945    0.0000 N   0  0  0  0  0  0  0  0  0  0  0  0
    1.5270    1.4871    0.0000 N   0  0  0  0  0  0  0  0  0  0  0  0
    2.2770   -2.3212    0.0000 C   0  0  0  0  0  0  0  0  0  0  0  0
    0.7770   -2.3212    0.0000 C   0  0  0  0  0  0  0  0  0  0  0  0
    1.5270   -0.0129    0.0000 C   0  0  0  0  0  0  0  0  0  0  0  0
    2.5486   -4.9051    0.0000 C   0  0  0  0  0  0  0  0  0  0  0  0
    3.1586   -3.5347    0.0000 C   0  0  0  0  0  0  0  0  0  0  0  0
    2.8201   -7.4889    0.0000 C   0  0  0  0  0  0  0  0  0  0  0  0
    3.4302   -6.1185    0.0000 C   0  0  0  0  0  0  0  0  0  0  0  0
    1.3284   -7.6456    0.0000 C   0  0  0  0  0  0  0  0  0  0  0  0
    1.0568   -5.0618    0.0000 C   0  0  0  0  0  0  0  0  0  0  0  0
    2.8261    2.2371    0.0000 C   0  0  0  0  0  0  0  0  0  0  0  0
    0.4466   -6.4321    0.0000 C   0  0  0  0  0  0  0  0  0  0  0  0
    2.8261    3.7371    0.0000 C   0  0  0  0  0  0  0  0  0  0  0  0
    4.1250    1.4871    0.0000 C   0  0  0  0  0  0  0  0  0  0  0  0
    4.1250    4.4871    0.0000 C   0  0  0  0  0  0  0  0  0  0  0  0
    5.4241    2.2371    0.0000 C   0  0  0  0  0  0  0  0  0  0  0  0
    5.4241    3.7371    0.0000 C   0  0  0  0  0  0  0  0  0  0  0  0
    1.5999  -10.2294    0.0000 C   0  0  0  0  0  0  0  0  0  0  0  0
  1  7  1  0  0  0  0
  1  9  1  0  0  0  0
  2  8  2  0  0  0  0
  3 14  1  0  0  0  0
  3 23  1  0  0  0  0
  4 12  1  0  0  0  0
  5  8  1  0  0  0  0
  5  9  1  0  0  0  0
  6  9  2  0  0  0  0
  6 16  1  0  0  0  0
  7  8  1  0  0  0  0
  7 11  2  0  0  0  0
 11 10  1  0  0  0  0
 10 13  1  0  0  0  0
 10 15  2  0  0  0  0
 12 13  2  0  0  0  0
 12 14  1  0  0  0  0
 14 17  2  0  0  0  0
 15 17  1  0  0  0  0
 16 18  2  0  0  0  0
 16 19  1  0  0  0  0
 18 20  1  0  0  0  0
 19 21  2  0  0  0  0
 20 22  2  0  0  0  0
 21 22  1  0  0  0  0
M  END
> <Value>
7.599980364934842

> <Relation>
=

> <SourceURI>
mol:CHEMBL2000354

$$$$

Generated by Molecular Materials Informatics

 30 33  0  0  0  0  0  0  0  0999 V2000
    0.1519   -3.4447    0.0000 S   0  0  0  0  0  0  0  0  0  0  0  0
    0.6920    1.5237    0.0000 O   0  0  0  0  0  0  0  0  0  0  0  0
   -1.1621    7.2298    0.0000 O   0  0  0  0  0  0  0  0  0  0  0  0
    2.8775   -3.7313    0.0000 N   0  0  0  0  0  0  0  0  0  0  0  0
    4.1764   -1.4813    0.0000 N   0  0  0  0  0  0  0  0  0  0  0  0
   -1.7789    0.7207    0.0000 N   0  0  0  0  0  0  0  0  0  0  0  0
    2.8775    0.7687    0.0000 N   0  0  0  0  0  0  0  0  0  0  0  0
   -3.6331    6.4271    0.0000 N   0  0  0  0  0  0  0  0  0  0  0  0
   -3.0929    8.9684    0.0000 N   0  0  0  0  0  0  0  0  0  0  0  0
    1.5784   -1.4813    0.0000 C   0  0  0  0  0  0  0  0  0  0  0  0
    0.1519   -1.0178    0.0000 C   0  0  0  0  0  0  0  0  0  0  0  0
    1.5784   -2.9813    0.0000 C   0  0  0  0  0  0  0  0  0  0  0  0
    2.8775   -0.7313    0.0000 C   0  0  0  0  0  0  0  0  0  0  0  0
   -0.3118    0.4089    0.0000 C   0  0  0  0  0  0  0  0  0  0  0  0
   -0.7298   -2.2313    0.0000 C   0  0  0  0  0  0  0  0  0  0  0  0
    4.1764   -2.9813    0.0000 C   0  0  0  0  0  0  0  0  0  0  0  0
   -2.2425    2.1473    0.0000 C   0  0  0  0  0  0  0  0  0  0  0  0
   -3.7096    2.4591    0.0000 C   0  0  0  0  0  0  0  0  0  0  0  0
   -1.2387    3.2620    0.0000 C   0  0  0  0  0  0  0  0  0  0  0  0
   -3.1694    5.0006    0.0000 C   0  0  0  0  0  0  0  0  0  0  0  0
   -4.1732    3.8858    0.0000 C   0  0  0  0  0  0  0  0  0  0  0  0
   -1.7023    4.6886    0.0000 C   0  0  0  0  0  0  0  0  0  0  0  0
   -2.6294    7.5418    0.0000 C   0  0  0  0  0  0  0  0  0  0  0  0
   -4.5602    9.2802    0.0000 C   0  0  0  0  0  0  0  0  0  0  0  0
   -5.5638    8.1655    0.0000 C   0  0  0  0  0  0  0  0  0  0  0  0
   -7.0311    8.4775    0.0000 C   0  0  0  0  0  0  0  0  0  0  0  0
   -5.0236   10.7068    0.0000 C   0  0  0  0  0  0  0  0  0  0  0  0
   -7.4945    9.9040    0.0000 C   0  0  0  0  0  0  0  0  0  0  0  0
   -6.4909   11.0188    0.0000 C   0  0  0  0  0  0  0  0  0  0  0  0
   -8.0347    7.3628    0.0000 C   0  0  0  0  0  0  0  0  0  0  0  0
  1 12  1  0  0  0  0
  1 15  1  0  0  0  0
  2 14  2  0  0  0  0
  3 23  2  0  0  0  0
  4 12  2  0  0  0  0
  4 16  1  0  0  0  0
  5 13  1  0  0  0  0
  5 16  2  0  0  0  0
  6 14  1  0  0  0  0
  6 17  1  0  0  0  0
  7 13  1  0  0  0  0
  8 20  1  0  0  0  0
  8 23  1  0  0  0  0
  9 23  1  0  0  0  0
  9 24  1  0  0  0  0
 10 11  1  0  0  0  0
 10 12  1  0  0  0  0
 10 13  2  0  0  0  0
 11 14  1  0  0  0  0
 11 15  2  0  0  0  0
 17 18  2  0  0  0  0
 17 19  1  0  0  0  0
 18 21  1  0  0  0  0
 19 22  2  0  0  0  0
 20 21  2  0  0  0  0
 20 22  1  0  0  0  0
 24 25  2  0  0  0  0
 24 27  1  0  0  0  0
 25 26  1  0  0  0  0
 26 28  2  0  0  0  0
 26 30  1  0  0  0  0
 27 29  2  0  0  0  0
 28 29  1  0  0  0  0
M  END
> <Value>
5.700000503883016

> <Relation>
<

> <SourceURI>
mol:CHEMBL1965507

$$$$

Generated by Molecular Materials Informatics

 25 28  0  0  0  0  0  0  0  0999 V2000
    2.2237    3.6189    0.0000 N   0  0  0  0  0  0  0  0  0  0  0  0
    3.5228    2.8689    0.0000 C   0  0  0  0  0  0  0  0  0  0  0  0
    4.8217    3.6189    0.0000 N   0  0  0  0  0  0  0  0  0  0  0  0
    6.1208    2.8689    0.0000 C   0  0  0  0  0  0  0  0  0  0  0  0
    6.1208    1.3689    0.0000 C   0  0  0  0  0  0  0  0  0  0  0  0
    4.8217    0.6189    0.0000 C   0  0  0  0  0  0  0  0  0  0  0  0
    3.5228    1.3689    0.0000 N   0  0  0  0  0  0  0  0  0  0  0  0
    4.8217   -0.8811    0.0000 C   0  0  0  0  0  0  0  0  0  0  0  0
    6.0353   -1.7628    0.0000 C   0  0  0  0  0  0  0  0  0  0  0  0
    5.5717   -3.1895    0.0000 N   0  0  0  0  0  0  0  0  0  0  0  0
    4.0717   -3.1895    0.0000 C   0  0  0  0  0  0  0  0  0  0  0  0
    3.6082   -1.7628    0.0000 N   0  0  0  0  0  0  0  0  0  0  0  0
    2.1817   -1.2993    0.0000 C   0  0  0  0  0  0  0  0  0  0  0  0
    1.0670   -2.3029    0.0000 C   0  0  0  0  0  0  0  0  0  0  0  0
   -0.3596   -1.8395    0.0000 C   0  0  0  0  0  0  0  0  0  0  0  0
   -0.6716   -0.3722    0.0000 N   0  0  0  0  0  0  0  0  0  0  0  0
    0.4431    0.6314    0.0000 C   0  0  0  0  0  0  0  0  0  0  0  0
    1.8697    0.1680    0.0000 C   0  0  0  0  0  0  0  0  0  0  0  0
    7.4619   -1.2993    0.0000 C   0  0  0  0  0  0  0  0  0  0  0  0
    7.7737    0.1680    0.0000 C   0  0  0  0  0  0  0  0  0  0  0  0
    9.2002    0.6314    0.0000 C   0  0  0  0  0  0  0  0  0  0  0  0
   10.3150   -0.3722    0.0000 C   0  0  0  0  0  0  0  0  0  0  0  0
   11.7417    0.0912    0.0000 F   0  0  0  0  0  0  0  0  0  0  0  0
   10.0031   -1.8395    0.0000 C   0  0  0  0  0  0  0  0  0  0  0  0
    8.5766   -2.3029    0.0000 C   0  0  0  0  0  0  0  0  0  0  0  0
  1  2  1  0  0  0  0
  2  3  2  0  0  0  0
  3  4  1  0  0  0  0
  4  5  2  0  0  0  0
  5  6  1  0  0  0  0
  6  7  2  0  0  0  0
  2  7  1  0  0  0  0
  6  8  1  0  0  0  0
  8  9  2  0  0  0  0
  9 10  1  0  0  0  0
 10 11  2  0  0  0  0
 11 12  1  0  0  0  0
  8 12  1  0  0  0  0
 12 13  1  0  0  0  0
 13 14  1  0  0  0  0
 14 15  1  0  0  0  0
 15 16  1  0  0  0  0
 16 17  1  0  0  0  0
 17 18  1  0  0  0  0
 13 18  1  0  0  0  0
  9 19  1  0  0  0  0
 19 20  2  0  0  0  0
 20 21  1  0  0  0  0
 21 22  2  0  0  0  0
 22 23  1  0  0  0  0
 22 24  1  0  0  0  0
 24 25  2  0  0  0  0
 19 25  1  0  0  0  0
M  END
> <Value>
5.899998417198648

> <Relation>
<

> <SourceURI>
mol:CHEMBL274064

$$$$

Generated by Molecular Materials Informatics

 19 21  0  0  0  0  0  0  0  0999 V2000
    1.2363   -5.8684    0.0000 O   0  0  0  0  0  0  0  0  0  0  0  0
   -5.2030   -4.5612    0.0000 N   0  0  0  0  0  0  0  0  0  0  0  0
   -2.9858   -6.1720    0.0000 N   0  0  0  0  0  0  0  0  0  0  0  0
   -1.5186   -5.8602    0.0000 N   0  0  0  0  0  0  0  0  0  0  0  0
   -0.0628   -3.6185    0.0000 N   0  0  0  0  0  0  0  0  0  0  0  0
   -2.7322   -3.7583    0.0000 C   0  0  0  0  0  0  0  0  0  0  0  0
   -3.7358   -4.8730    0.0000 C   0  0  0  0  0  0  0  0  0  0  0  0
   -1.3619   -4.3684    0.0000 C   0  0  0  0  0  0  0  0  0  0  0  0
   -4.6629   -2.0200    0.0000 C   0  0  0  0  0  0  0  0  0  0  0  0
   -5.6665   -3.1347    0.0000 C   0  0  0  0  0  0  0  0  0  0  0  0
   -3.1956   -2.3318    0.0000 C   0  0  0  0  0  0  0  0  0  0  0  0
   -5.1263   -0.5935    0.0000 C   0  0  0  0  0  0  0  0  0  0  0  0
   -7.1337   -2.8227    0.0000 C   0  0  0  0  0  0  0  0  0  0  0  0
    1.2363   -4.3684    0.0000 C   0  0  0  0  0  0  0  0  0  0  0  0
   -6.5935   -0.2815    0.0000 C   0  0  0  0  0  0  0  0  0  0  0  0
   -7.5971   -1.3962    0.0000 C   0  0  0  0  0  0  0  0  0  0  0  0
    2.5351   -3.6185    0.0000 C   0  0  0  0  0  0  0  0  0  0  0  0
    3.8342   -4.3684    0.0000 C   0  0  0  0  0  0  0  0  0  0  0  0
    5.1332   -3.6185    0.0000 C   0  0  0  0  0  0  0  0  0  0  0  0
  1 14  2  0  0  0  0
  2  7  2  0  0  0  0
  2 10  1  0  0  0  0
  3  4  1  0  0  0  0
  3  7  1  0  0  0  0
  4  8  2  0  0  0  0
  5  8  1  0  0  0  0
  5 14  1  0  0  0  0
  6  7  1  0  0  0  0
  6  8  1  0  0  0  0
  6 11  2  0  0  0  0
  9 10  1  0  0  0  0
  9 11  1  0  0  0  0
  9 12  2  0  0  0  0
 10 13  2  0  0  0  0
 12 15  1  0  0  0  0
 13 16  1  0  0  0  0
 14 17  1  0  0  0  0
 15 16  2  0  0  0  0
 17 18  1  0  0  0  0
 18 19  1  0  0  0  0
M  END
> <Value>
5.899998417198648

> <Relation>
<

> <SourceURI>
mol:CHEMBL1967564

$$$$

Generated by Molecular Materials Informatics

 32 37  0  0  0  0  0  0  0  0999 V2000
    3.7267    2.1175    0.0000 C   0  0  0  0  0  0  0  0  0  0  0  0
    3.8925    3.6124    0.0000 N   0  0  0  0  0  0  0  0  0  0  0  0
    2.6727    4.5027    0.0000 C   0  0  0  0  0  0  0  0  0  0  0  0
    1.3032    3.8951    0.0000 N   0  0  0  0  0  0  0  0  0  0  0  0
    2.3520    1.5149    0.0000 C   0  0  0  0  0  0  0  0  0  0  0  0
    1.1406    2.3977    0.0000 C   0  0  0  0  0  0  0  0  0  0  0  0
   -0.0734    1.5187    0.0000 C   0  0  0  0  0  0  0  0  0  0  0  0
    0.3876    0.0923    0.0000 C   0  0  0  0  0  0  0  0  0  0  0  0
    1.8862    0.0897    0.0000 N   0  0  0  0  0  0  0  0  0  0  0  0
    2.8323    5.9943    0.0000 N   0  0  0  0  0  0  0  0  0  0  0  0
    2.6381   -1.2085    0.0000 C   0  0  0  0  0  0  0  0  0  0  0  0
    4.1381   -1.2065    0.0000 C   0  0  0  0  0  0  0  0  0  0  0  0
   -1.4994    1.9844    0.0000 C   0  0  0  0  0  0  0  0  0  0  0  0
   -8.3775   -3.5617    0.0000 C   0  0  0  0  0  0  0  0  0  0  0  0
   -7.1764   -4.4597    0.0000 C   0  0  0  0  0  0  0  0  0  0  0  0
   -5.8004   -3.8656    0.0000 C   0  0  0  0  0  0  0  0  0  0  0  0
   -8.2108   -2.0775    0.0000 C   0  0  0  0  0  0  0  0  0  0  0  0
   -6.8397   -1.4784    0.0000 C   0  0  0  0  0  0  0  0  0  0  0  0
   -5.6160   -2.3720    0.0000 C   0  0  0  0  0  0  0  0  0  0  0  0
   -4.3880   -1.4843    0.0000 S   0  0  0  0  0  0  0  0  0  0  0  0
   -4.8527   -0.0419    0.0000 C   0  0  0  0  0  0  0  0  0  0  0  0
   -6.3680   -0.0384    0.0000 C   0  0  0  0  0  0  0  0  0  0  0  0
   -3.9679    1.1696    0.0000 C   0  0  0  0  0  0  0  0  0  0  0  0
   -2.5039    0.8704    0.0000 C   0  0  0  0  0  0  0  0  0  0  0  0
   -1.9675    3.4081    0.0000 C   0  0  0  0  0  0  0  0  0  0  0  0
   -4.4385    2.5876    0.0000 C   0  0  0  0  0  0  0  0  0  0  0  0
   -3.4479    3.7133    0.0000 C   0  0  0  0  0  0  0  0  0  0  0  0
   -4.2126    5.0035    0.0000 C   0  0  0  0  0  0  0  0  0  0  0  0
   -5.6759    4.6750    0.0000 N   0  0  0  0  0  0  0  0  0  0  0  0
   -5.8153    3.1818    0.0000 N   0  0  0  0  0  0  0  0  0  0  0  0
    4.8899   -2.5047    0.0000 C   0  0  0  0  0  0  0  0  0  0  0  0
    6.3900   -2.5025    0.0000 N   0  0  0  0  0  0  0  0  0  0  0  0
  9  5  1  0  0  0  0
  3 10  1  0  0  0  0
  5  1  1  0  0  0  0
  1  2  2  0  0  0  0
  2  3  1  0  0  0  0
  9 11  1  0  0  0  0
  3  4  2  0  0  0  0
 11 12  1  0  0  0  0
  4  6  1  0  0  0  0
  7 13  1  0  0  0  0
  5  6  2  0  0  0  0
  6  7  1  0  0  0  0
 14 15  2  0  0  0  0
 18 17  2  0  0  0  0
 19 20  1  0  0  0  0
 20 21  1  0  0  0  0
 21 22  2  0  0  0  0
 22 18  1  0  0  0  0
 17 14  1  0  0  0  0
 21 23  1  0  0  0  0
 24 13  2  0  0  0  0
 18 19  1  0  0  0  0
 13 25  1  0  0  0  0
 25 27  2  0  0  0  0
 26 23  2  0  0  0  0
 23 24  1  0  0  0  0
 26 27  1  0  0  0  0
 15 16  1  0  0  0  0
 27 28  1  0  0  0  0
 28 29  2  0  0  0  0
 29 30  1  0  0  0  0
 30 26  1  0  0  0  0
 16 19  2  0  0  0  0
  7  8  2  0  0  0  0
 12 31  1  0  0  0  0
  8  9  1  0  0  0  0
 31 32  1  0  0  0  0
M  END
> <Value>
7.100015437450609

> <Relation>
=

> <SourceURI>
mol:CHEMBL592030

$$$$

Generated by Molecular Materials Informatics

 20 22  0  0  0  0  0  0  0  0999 V2000
    5.8692    2.4098    0.0000 O   0  0  0  0  0  0  0  0  0  0  0  0
   -4.3388    2.6634    0.0000 N   0  0  0  0  0  0  0  0  0  0  0  0
   -3.2240    0.1598    0.0000 N   0  0  0  0  0  0  0  0  0  0  0  0
   -0.6261    0.1598    0.0000 N   0  0  0  0  0  0  0  0  0  0  0  0
    0.6730    2.4098    0.0000 N   0  0  0  0  0  0  0  0  0  0  0  0
   -1.9251    2.4098    0.0000 C   0  0  0  0  0  0  0  0  0  0  0  0
   -2.2370    3.8770    0.0000 C   0  0  0  0  0  0  0  0  0  0  0  0
   -3.2240    1.6598    0.0000 C   0  0  0  0  0  0  0  0  0  0  0  0
   -0.6261    1.6598    0.0000 C   0  0  0  0  0  0  0  0  0  0  0  0
   -1.2333    4.9917    0.0000 C   0  0  0  0  0  0  0  0  0  0  0  0
   -3.7288    4.0338    0.0000 C   0  0  0  0  0  0  0  0  0  0  0  0
   -1.9251   -0.5902    0.0000 C   0  0  0  0  0  0  0  0  0  0  0  0
   -1.6968    6.4183    0.0000 C   0  0  0  0  0  0  0  0  0  0  0  0
    0.2339    4.6798    0.0000 C   0  0  0  0  0  0  0  0  0  0  0  0
    1.9719    1.6598    0.0000 C   0  0  0  0  0  0  0  0  0  0  0  0
   -0.6931    7.5330    0.0000 C   0  0  0  0  0  0  0  0  0  0  0  0
    1.2376    5.7945    0.0000 C   0  0  0  0  0  0  0  0  0  0  0  0
    0.7741    7.2212    0.0000 C   0  0  0  0  0  0  0  0  0  0  0  0
    3.2710    2.4098    0.0000 C   0  0  0  0  0  0  0  0  0  0  0  0
    4.5701    1.6598    0.0000 C   0  0  0  0  0  0  0  0  0  0  0  0
  1 20  1  0  0  0  0
  2  8  1  0  0  0  0
  2 11  1  0  0  0  0
  3  8  1  0  0  0  0
  3 12  2  0  0  0  0
  4  9  2  0  0  0  0
  4 12  1  0  0  0  0
  5  9  1  0  0  0  0
  5 15  1  0  0  0  0
  6  7  1  0  0  0  0
  6  8  2  0  0  0  0
  6  9  1  0  0  0  0
  7 10  1  0  0  0  0
  7 11  2  0  0  0  0
 10 13  2  0  0  0  0
 10 14  1  0  0  0  0
 13 16  1  0  0  0  0
 14 17  2  0  0  0  0
 15 19  1  0  0  0  0
 16 18  2  0  0  0  0
 17 18  1  0  0  0  0
 19 20  1  0  0  0  0
M  END
> <Value>
5.899998417198648

> <Relation>
<

> <SourceURI>
mol:CHEMBL2000071

$$$$

Generated by Molecular Materials Informatics

 26 28  0  0  0  0  0  0  0  0999 V2000
   -3.8519  -10.2188    0.0000 F   0  0  0  0  0  0  0  0  0  0  0  0
   -2.3519   -8.7188    0.0000 F   0  0  0  0  0  0  0  0  0  0  0  0
   -5.3519   -8.7188    0.0000 F   0  0  0  0  0  0  0  0  0  0  0  0
    5.2414    2.5312    0.0000 O   0  0  0  0  0  0  0  0  0  0  0  0
   -2.5528   -1.9687    0.0000 O   0  0  0  0  0  0  0  0  0  0  0  0
    0.0452   -1.9687    0.0000 N   0  0  0  0  0  0  0  0  0  0  0  0
    0.0452    2.5312    0.0000 N   0  0  0  0  0  0  0  0  0  0  0  0
   -1.2539   -4.2188    0.0000 N   0  0  0  0  0  0  0  0  0  0  0  0
   -3.8519   -4.2188    0.0000 N   0  0  0  0  0  0  0  0  0  0  0  0
    1.3443    0.2812    0.0000 C   0  0  0  0  0  0  0  0  0  0  0  0
    0.0452   -0.4688    0.0000 C   0  0  0  0  0  0  0  0  0  0  0  0
    1.3443    1.7812    0.0000 C   0  0  0  0  0  0  0  0  0  0  0  0
   -3.8519   -7.2188    0.0000 C   0  0  0  0  0  0  0  0  0  0  0  0
   -3.8519   -8.7188    0.0000 C   0  0  0  0  0  0  0  0  0  0  0  0
   -2.5528   -4.9688    0.0000 C   0  0  0  0  0  0  0  0  0  0  0  0
    2.6432   -0.4688    0.0000 C   0  0  0  0  0  0  0  0  0  0  0  0
    2.6432    2.5312    0.0000 C   0  0  0  0  0  0  0  0  0  0  0  0
   -2.5528   -6.4687    0.0000 C   0  0  0  0  0  0  0  0  0  0  0  0
   -1.2539   -2.7188    0.0000 C   0  0  0  0  0  0  0  0  0  0  0  0
    3.9423    1.7812    0.0000 C   0  0  0  0  0  0  0  0  0  0  0  0
   -1.2539    0.2812    0.0000 C   0  0  0  0  0  0  0  0  0  0  0  0
   -5.1510   -6.4687    0.0000 C   0  0  0  0  0  0  0  0  0  0  0  0
    3.9423    0.2812    0.0000 C   0  0  0  0  0  0  0  0  0  0  0  0
   -1.2539    1.7812    0.0000 C   0  0  0  0  0  0  0  0  0  0  0  0
   -5.1510   -4.9688    0.0000 C   0  0  0  0  0  0  0  0  0  0  0  0
    5.2414    4.0312    0.0000 C   0  0  0  0  0  0  0  0  0  0  0  0
  1 14  1  0  0  0  0
  2 14  1  0  0  0  0
  3 14  1  0  0  0  0
  4 20  1  0  0  0  0
  4 26  1  0  0  0  0
  5 19  2  0  0  0  0
  6 11  1  0  0  0  0
  6 19  1  0  0  0  0
  7 12  1  0  0  0  0
  7 24  2  0  0  0  0
  8 15  1  0  0  0  0
  8 19  1  0  0  0  0
  9 15  1  0  0  0  0
  9 25  2  0  0  0  0
 10 11  1  0  0  0  0
 10 12  1  0  0  0  0
 10 16  2  0  0  0  0
 11 21  2  0  0  0  0
 12 17  2  0  0  0  0
 13 14  1  0  0  0  0
 13 18  1  0  0  0  0
 13 22  2  0  0  0  0
 15 18  2  0  0  0  0
 16 23  1  0  0  0  0
 17 20  1  0  0  0  0
 20 23  2  0  0  0  0
 21 24  1  0  0  0  0
 22 25  1  0  0  0  0
M  END
> <Value>
5.899998417198648

> <Relation>
<

> <SourceURI>
mol:CHEMBL1979176

$$$$

Generated by Molecular Materials Informatics

 33 37  0  0  0  0  0  0  0  0999 V2000
    0.7929    3.9995    0.0000 S   0  0  0  0  0  0  0  0  0  0  0  0
   -6.8535   -9.3492    0.0000 F   0  0  0  0  0  0  0  0  0  0  0  0
   -3.5322   -3.3310    0.0000 O   0  0  0  0  0  0  0  0  0  0  0  0
    4.8176    2.0359    0.0000 N   0  0  0  0  0  0  0  0  0  0  0  0
    2.7685    8.0943    0.0000 N   0  0  0  0  0  0  0  0  0  0  0  0
    3.5185   -0.2141    0.0000 N   0  0  0  0  0  0  0  0  0  0  0  0
    4.2685    8.0943    0.0000 N   0  0  0  0  0  0  0  0  0  0  0  0
   -1.0613   -4.1339    0.0000 N   0  0  0  0  0  0  0  0  0  0  0  0
   -2.9920   -5.8723    0.0000 N   0  0  0  0  0  0  0  0  0  0  0  0
    2.2195    2.0359    0.0000 C   0  0  0  0  0  0  0  0  0  0  0  0
    2.2195    3.5359    0.0000 C   0  0  0  0  0  0  0  0  0  0  0  0
    0.7929    1.5724    0.0000 C   0  0  0  0  0  0  0  0  0  0  0  0
    3.5185    4.2859    0.0000 C   0  0  0  0  0  0  0  0  0  0  0  0
    3.5185    1.2859    0.0000 C   0  0  0  0  0  0  0  0  0  0  0  0
    0.3295    0.1459    0.0000 C   0  0  0  0  0  0  0  0  0  0  0  0
    3.5185    5.7859    0.0000 C   0  0  0  0  0  0  0  0  0  0  0  0
   -0.0887    2.7859    0.0000 C   0  0  0  0  0  0  0  0  0  0  0  0
    4.8176    3.5359    0.0000 C   0  0  0  0  0  0  0  0  0  0  0  0
    2.3049    6.6677    0.0000 C   0  0  0  0  0  0  0  0  0  0  0  0
    4.7320    6.6677    0.0000 C   0  0  0  0  0  0  0  0  0  0  0  0
    1.3331   -0.9688    0.0000 C   0  0  0  0  0  0  0  0  0  0  0  0
   -1.1378   -0.1659    0.0000 C   0  0  0  0  0  0  0  0  0  0  0  0
   -0.5976   -2.7074    0.0000 C   0  0  0  0  0  0  0  0  0  0  0  0
    0.8695   -2.3954    0.0000 C   0  0  0  0  0  0  0  0  0  0  0  0
   -1.6015   -1.5927    0.0000 C   0  0  0  0  0  0  0  0  0  0  0  0
   -2.5284   -4.4458    0.0000 C   0  0  0  0  0  0  0  0  0  0  0  0
    1.8869    9.3077    0.0000 C   0  0  0  0  0  0  0  0  0  0  0  0
   -4.4591   -6.1843    0.0000 C   0  0  0  0  0  0  0  0  0  0  0  0
   -4.9227   -7.6108    0.0000 C   0  0  0  0  0  0  0  0  0  0  0  0
   -6.3900   -7.9227    0.0000 C   0  0  0  0  0  0  0  0  0  0  0  0
   -5.4629   -5.0696    0.0000 C   0  0  0  0  0  0  0  0  0  0  0  0
   -7.3936   -6.8079    0.0000 C   0  0  0  0  0  0  0  0  0  0  0  0
   -6.9302   -5.3814    0.0000 C   0  0  0  0  0  0  0  0  0  0  0  0
  1 11  1  0  0  0  0
  1 17  1  0  0  0  0
  2 30  1  0  0  0  0
  3 26  2  0  0  0  0
  4 14  2  0  0  0  0
  4 18  1  0  0  0  0
  5  7  1  0  0  0  0
  5 19  1  0  0  0  0
  5 27  1  0  0  0  0
  6 14  1  0  0  0  0
  7 20  2  0  0  0  0
  8 23  1  0  0  0  0
  8 26  1  0  0  0  0
  9 26  1  0  0  0  0
  9 28  1  0  0  0  0
 10 11  2  0  0  0  0
 10 12  1  0  0  0  0
 10 14  1  0  0  0  0
 11 13  1  0  0  0  0
 12 15  1  0  0  0  0
 12 17  2  0  0  0  0
 13 16  1  0  0  0  0
 13 18  2  0  0  0  0
 15 21  2  0  0  0  0
 15 22  1  0  0  0  0
 16 19  2  0  0  0  0
 16 20  1  0  0  0  0
 21 24  1  0  0  0  0
 22 25  2  0  0  0  0
 23 24  2  0  0  0  0
 23 25  1  0  0  0  0
 28 29  1  0  0  0  0
 28 31  2  0  0  0  0
 29 30  2  0  0  0  0
 30 32  1  0  0  0  0
 31 33  1  0  0  0  0
 32 33  2  0  0  0  0
M  END
> <Value>
5.899998417198648

> <Relation>
<

> <SourceURI>
mol:CHEMBL1970317

$$$$

Generated by Molecular Materials Informatics

 34 38  0  0  0  0  0  0  0  0999 V2000
   -4.4705   -0.7439    0.0000 O   0  0  0  0  0  0  0  0  0  0  0  0
   -7.3281   -5.3355    0.0000 O   0  0  0  0  0  0  0  0  0  0  0  0
   -2.3863   -6.9413    0.0000 O   0  0  0  0  0  0  0  0  0  0  0  0
   -1.5360    2.3068    0.0000 N   0  0  0  0  0  0  0  0  0  0  0  0
   -2.4176    1.0934    0.0000 N   0  0  0  0  0  0  0  0  0  0  0  0
   -1.9994   -1.5468    0.0000 N   0  0  0  0  0  0  0  0  0  0  0  0
    6.1617   -0.9113    0.0000 N   0  0  0  0  0  0  0  0  0  0  0  0
    3.9446   -1.8984    0.0000 N   0  0  0  0  0  0  0  0  0  0  0  0
    5.4117   -2.2104    0.0000 N   0  0  0  0  0  0  0  0  0  0  0  0
   -0.1094    0.3434    0.0000 C   0  0  0  0  0  0  0  0  0  0  0  0
   -0.1094    1.8434    0.0000 C   0  0  0  0  0  0  0  0  0  0  0  0
   -1.5360   -0.1202    0.0000 C   0  0  0  0  0  0  0  0  0  0  0  0
    2.4888    0.3434    0.0000 C   0  0  0  0  0  0  0  0  0  0  0  0
    1.1897   -0.4066    0.0000 C   0  0  0  0  0  0  0  0  0  0  0  0
    3.7877   -0.4066    0.0000 C   0  0  0  0  0  0  0  0  0  0  0  0
    1.1897    2.5934    0.0000 C   0  0  0  0  0  0  0  0  0  0  0  0
    2.4888    1.8434    0.0000 C   0  0  0  0  0  0  0  0  0  0  0  0
   -3.4667   -1.8586    0.0000 C   0  0  0  0  0  0  0  0  0  0  0  0
   -3.9303   -3.2853    0.0000 C   0  0  0  0  0  0  0  0  0  0  0  0
    5.1580    0.2034    0.0000 C   0  0  0  0  0  0  0  0  0  0  0  0
   -2.9265   -4.3999    0.0000 C   0  0  0  0  0  0  0  0  0  0  0  0
   -5.3974   -3.5972    0.0000 C   0  0  0  0  0  0  0  0  0  0  0  0
   -5.8611   -5.0237    0.0000 C   0  0  0  0  0  0  0  0  0  0  0  0
   -3.3901   -5.8266    0.0000 C   0  0  0  0  0  0  0  0  0  0  0  0
    7.6535   -0.7544    0.0000 C   0  0  0  0  0  0  0  0  0  0  0  0
   -4.8572   -6.1384    0.0000 C   0  0  0  0  0  0  0  0  0  0  0  0
    8.5351   -1.9681    0.0000 C   0  0  0  0  0  0  0  0  0  0  0  0
   10.0269   -1.8112    0.0000 C   0  0  0  0  0  0  0  0  0  0  0  0
    7.9251   -3.3384    0.0000 C   0  0  0  0  0  0  0  0  0  0  0  0
   10.9086   -3.0248    0.0000 C   0  0  0  0  0  0  0  0  0  0  0  0
    8.8068   -4.5519    0.0000 C   0  0  0  0  0  0  0  0  0  0  0  0
   -7.7918   -6.7621    0.0000 C   0  0  0  0  0  0  0  0  0  0  0  0
   -2.8500   -8.3679    0.0000 C   0  0  0  0  0  0  0  0  0  0  0  0
   10.2986   -4.3952    0.0000 C   0  0  0  0  0  0  0  0  0  0  0  0
  1 18  2  0  0  0  0
  2 23  1  0  0  0  0
  2 32  1  0  0  0  0
  3 24  1  0  0  0  0
  3 33  1  0  0  0  0
  4  5  1  0  0  0  0
  4 11  1  0  0  0  0
  5 12  2  0  0  0  0
  6 12  1  0  0  0  0
  6 18  1  0  0  0  0
  7  9  1  0  0  0  0
  7 20  1  0  0  0  0
  7 25  1  0  0  0  0
  8  9  2  0  0  0  0
  8 15  1  0  0  0  0
 10 11  1  0  0  0  0
 10 12  1  0  0  0  0
 10 14  2  0  0  0  0
 11 16  2  0  0  0  0
 13 14  1  0  0  0  0
 13 15  1  0  0  0  0
 13 17  2  0  0  0  0
 15 20  2  0  0  0  0
 16 17  1  0  0  0  0
 18 19  1  0  0  0  0
 19 21  2  0  0  0  0
 19 22  1  0  0  0  0
 21 24  1  0  0  0  0
 22 23  2  0  0  0  0
 23 26  1  0  0  0  0
 24 26  2  0  0  0  0
 25 27  1  0  0  0  0
 27 28  2  0  0  0  0
 27 29  1  0  0  0  0
 28 30  1  0  0  0  0
 29 31  2  0  0  0  0
 30 34  2  0  0  0  0
 31 34  1  0  0  0  0
M  END
> <Value>
7.79997073344623

> <Relation>
=

> <SourceURI>
mol:CHEMBL2002613

$$$$

Generated by Molecular Materials Informatics

 32 35  0  0  0  0  0  0  0  0999 V2000
   -2.1746    3.7853    0.0000 F   0  0  0  0  0  0  0  0  0  0  0  0
   -6.6746    1.1873    0.0000 F   0  0  0  0  0  0  0  0  0  0  0  0
    2.3678  -10.1914    0.0000 O   0  0  0  0  0  0  0  0  0  0  0  0
    1.6336    0.4373    0.0000 N   0  0  0  0  0  0  0  0  0  0  0  0
    0.2071    2.4008    0.0000 N   0  0  0  0  0  0  0  0  0  0  0  0
    4.2318    1.9373    0.0000 N   0  0  0  0  0  0  0  0  0  0  0  0
    0.7472   -2.5676    0.0000 N   0  0  0  0  0  0  0  0  0  0  0  0
   -1.1835   -4.3060    0.0000 N   0  0  0  0  0  0  0  0  0  0  0  0
    1.2874   -5.1089    0.0000 N   0  0  0  0  0  0  0  0  0  0  0  0
    0.2071   -0.0263    0.0000 C   0  0  0  0  0  0  0  0  0  0  0  0
   -0.6746    1.1873    0.0000 C   0  0  0  0  0  0  0  0  0  0  0  0
    1.6336    1.9373    0.0000 C   0  0  0  0  0  0  0  0  0  0  0  0
   -0.2564   -1.4529    0.0000 C   0  0  0  0  0  0  0  0  0  0  0  0
   -2.1746    1.1873    0.0000 C   0  0  0  0  0  0  0  0  0  0  0  0
    2.9327    2.6873    0.0000 C   0  0  0  0  0  0  0  0  0  0  0  0
    2.9327   -0.3127    0.0000 C   0  0  0  0  0  0  0  0  0  0  0  0
    4.2318    0.4373    0.0000 C   0  0  0  0  0  0  0  0  0  0  0  0
   -2.9246    2.4862    0.0000 C   0  0  0  0  0  0  0  0  0  0  0  0
   -1.7237   -1.7647    0.0000 C   0  0  0  0  0  0  0  0  0  0  0  0
   -2.9246   -0.1118    0.0000 C   0  0  0  0  0  0  0  0  0  0  0  0
    0.2836   -3.9941    0.0000 C   0  0  0  0  0  0  0  0  0  0  0  0
   -4.4246    2.4862    0.0000 C   0  0  0  0  0  0  0  0  0  0  0  0
    2.9327    4.1873    0.0000 C   0  0  0  0  0  0  0  0  0  0  0  0
   -4.4246   -0.1118    0.0000 C   0  0  0  0  0  0  0  0  0  0  0  0
   -5.1746    1.1873    0.0000 C   0  0  0  0  0  0  0  0  0  0  0  0
   -2.1873   -3.1914    0.0000 C   0  0  0  0  0  0  0  0  0  0  0  0
    5.5307   -0.3127    0.0000 C   0  0  0  0  0  0  0  0  0  0  0  0
    0.8238   -6.5354    0.0000 C   0  0  0  0  0  0  0  0  0  0  0  0
    1.8276   -7.6501    0.0000 C   0  0  0  0  0  0  0  0  0  0  0  0
    2.8312   -8.7649    0.0000 C   0  0  0  0  0  0  0  0  0  0  0  0
    2.9423   -6.6465    0.0000 C   0  0  0  0  0  0  0  0  0  0  0  0
    0.7129   -8.6540    0.0000 C   0  0  0  0  0  0  0  0  0  0  0  0
  1 18  1  0  0  0  0
  2 25  1  0  0  0  0
  3 30  1  0  0  0  0
  4 10  1  0  0  0  0
  4 12  1  0  0  0  0
  4 16  1  0  0  0  0
  5 11  1  0  0  0  0
  5 12  2  0  0  0  0
  6 15  2  0  0  0  0
  6 17  1  0  0  0  0
  7 13  1  0  0  0  0
  7 21  2  0  0  0  0
  8 21  1  0  0  0  0
  8 26  2  0  0  0  0
  9 21  1  0  0  0  0
  9 28  1  0  0  0  0
 10 11  2  0  0  0  0
 10 13  1  0  0  0  0
 11 14  1  0  0  0  0
 12 15  1  0  0  0  0
 13 19  2  0  0  0  0
 14 18  1  0  0  0  0
 14 20  2  0  0  0  0
 15 23  1  0  0  0  0
 16 17  2  0  0  0  0
 17 27  1  0  0  0  0
 18 22  2  0  0  0  0
 19 26  1  0  0  0  0
 20 24  1  0  0  0  0
 22 25  1  0  0  0  0
 24 25  2  0  0  0  0
 28 29  1  0  0  0  0
 29 30  1  0  0  0  0
 29 31  1  0  0  0  0
 29 32  1  0  0  0  0
M  END
> <Value>
5.899998417198648

> <Relation>
<

> <SourceURI>
mol:CHEMBL2000408

$$$$

Generated by Molecular Materials Informatics

 32 35  0  0  0  0  0  0  0  0999 V2000
   -3.6331  -18.3291    0.0000 C   0  0  0  0  0  0  0  0  0  0  0  0
   -3.5740  -19.8252    0.0000 C   0  0  0  0  0  0  0  0  0  0  0  0
   -2.2506  -20.5190    0.0000 C   0  0  0  0  0  0  0  0  0  0  0  0
   -0.9857  -19.7185    0.0000 C   0  0  0  0  0  0  0  0  0  0  0  0
   -1.0523  -18.2169    0.0000 C   0  0  0  0  0  0  0  0  0  0  0  0
   -2.3762  -17.5298    0.0000 C   0  0  0  0  0  0  0  0  0  0  0  0
    0.2122  -17.4094    0.0000 N   0  0  0  0  0  0  0  0  0  0  0  0
    0.1453  -15.9111    0.0000 C   0  0  0  0  0  0  0  0  0  0  0  0
    1.4095  -15.1037    0.0000 N   0  0  0  0  0  0  0  0  0  0  0  0
   -1.1861  -15.2197    0.0000 O   0  0  0  0  0  0  0  0  0  0  0  0
    2.7409  -15.7951    0.0000 C   0  0  0  0  0  0  0  0  0  0  0  0
    2.8038  -17.2909    0.0000 N   0  0  0  0  0  0  0  0  0  0  0  0
    4.1334  -17.9823    0.0000 C   0  0  0  0  0  0  0  0  0  0  0  0
    5.3995  -17.1747    0.0000 C   0  0  0  0  0  0  0  0  0  0  0  0
    5.3275  -15.6688    0.0000 N   0  0  0  0  0  0  0  0  0  0  0  0
    3.9969  -14.9842    0.0000 C   0  0  0  0  0  0  0  0  0  0  0  0
    6.7281  -17.8542    0.0000 C   0  0  0  0  0  0  0  0  0  0  0  0
    8.0604  -18.5440    0.0000 N   0  0  0  0  0  0  0  0  0  0  0  0
    4.1996  -19.4808    0.0000 O   0  0  0  0  0  0  0  0  0  0  0  0
    0.3442  -20.4126    0.0000 O   0  0  0  0  0  0  0  0  0  0  0  0
    0.4079  -21.9115    0.0000 C   0  0  0  0  0  0  0  0  0  0  0  0
    2.9351  -20.2874    0.0000 C   0  0  0  0  0  0  0  0  0  0  0  0
    1.7375  -22.6057    0.0000 C   0  0  0  0  0  0  0  0  0  0  0  0
    3.0036  -21.8013    0.0000 C   0  0  0  0  0  0  0  0  0  0  0  0
   -4.9618  -17.6329    0.0000 Cl  0  0  0  0  0  0  0  0  0  0  0  0
   -4.8418  -20.6268    0.0000 N   0  0  0  0  0  0  0  0  0  0  0  0
   -6.1701  -19.9294    0.0000 C   0  0  0  0  0  0  0  0  0  0  0  0
   -7.4379  -20.7310    0.0000 C   0  0  0  0  0  0  0  0  0  0  0  0
   -8.8338  -20.1754    0.0000 C   0  0  0  0  0  0  0  0  0  0  0  0
   -9.7922  -21.3297    0.0000 N   0  0  0  0  0  0  0  0  0  0  0  0
   -8.9906  -22.5977    0.0000 C   0  0  0  0  0  0  0  0  0  0  0  0
   -7.5370  -22.2269    0.0000 S   0  0  0  0  0  0  0  0  0  0  0  0
 15 16  2  0  0  0  0
 16 11  1  0  0  0  0
  7  8  1  0  0  0  0
 17 18  3  0  0  0  0
 14 17  1  0  0  0  0
  8  9  1  0  0  0  0
 13 19  1  0  0  0  0
  4  5  1  0  0  0  0
  4 20  1  0  0  0  0
  8 10  2  0  0  0  0
 20 21  1  0  0  0  0
  2  3  1  0  0  0  0
 19 22  1  0  0  0  0
 22 24  1  0  0  0  0
  9 11  1  0  0  0  0
 21 23  1  0  0  0  0
  5  6  2  0  0  0  0
 23 24  1  0  0  0  0
 11 12  2  0  0  0  0
  1 25  1  0  0  0  0
  6  1  1  0  0  0  0
  2 26  1  0  0  0  0
 12 13  1  0  0  0  0
 26 27  1  0  0  0  0
  1  2  2  0  0  0  0
 27 28  1  0  0  0  0
 28 29  2  0  0  0  0
 13 14  2  0  0  0  0
  5  7  1  0  0  0  0
 14 15  1  0  0  0  0
  3  4  2  0  0  0  0
 29 30  1  0  0  0  0
 30 31  2  0  0  0  0
 31 32  1  0  0  0  0
 32 28  1  0  0  0  0
M  END
> <Value>
5.899998417198648

> <Relation>
<

> <SourceURI>
mol:CHEMBL248757

$$$$

Generated by Molecular Materials Informatics

 31 35  0  0  0  0  0  0  0  0999 V2000
   -0.8564   -4.1408    0.0000 O   0  0  0  0  0  0  0  0  0  0  0  0
   -1.3965   -1.5995    0.0000 N   0  0  0  0  0  0  0  0  0  0  0  0
   -2.2782   -0.3858    0.0000 N   0  0  0  0  0  0  0  0  0  0  0  0
    4.0840    2.6058    0.0000 N   0  0  0  0  0  0  0  0  0  0  0  0
    6.3011    1.6187    0.0000 N   0  0  0  0  0  0  0  0  0  0  0  0
   -1.8600    2.2542    0.0000 N   0  0  0  0  0  0  0  0  0  0  0  0
    5.5511    2.9178    0.0000 N   0  0  0  0  0  0  0  0  0  0  0  0
   -6.2618   -3.9617    0.0000 N   0  0  0  0  0  0  0  0  0  0  0  0
    0.0300   -1.1358    0.0000 C   0  0  0  0  0  0  0  0  0  0  0  0
    0.0300    0.3642    0.0000 C   0  0  0  0  0  0  0  0  0  0  0  0
   -1.3965    0.8276    0.0000 C   0  0  0  0  0  0  0  0  0  0  0  0
    2.6282    0.3642    0.0000 C   0  0  0  0  0  0  0  0  0  0  0  0
   -1.8600   -3.0260    0.0000 C   0  0  0  0  0  0  0  0  0  0  0  0
    1.3291    1.1142    0.0000 C   0  0  0  0  0  0  0  0  0  0  0  0
    1.3291   -1.8858    0.0000 C   0  0  0  0  0  0  0  0  0  0  0  0
    3.9271    1.1142    0.0000 C   0  0  0  0  0  0  0  0  0  0  0  0
    2.6282   -1.1358    0.0000 C   0  0  0  0  0  0  0  0  0  0  0  0
   -3.3273   -3.3378    0.0000 C   0  0  0  0  0  0  0  0  0  0  0  0
    5.2975    0.5040    0.0000 C   0  0  0  0  0  0  0  0  0  0  0  0
   -4.3311   -2.2231    0.0000 C   0  0  0  0  0  0  0  0  0  0  0  0
   -3.7909   -4.7646    0.0000 C   0  0  0  0  0  0  0  0  0  0  0  0
    7.7929    1.4620    0.0000 C   0  0  0  0  0  0  0  0  0  0  0  0
   -5.7982   -2.5351    0.0000 C   0  0  0  0  0  0  0  0  0  0  0  0
   -5.2580   -5.0764    0.0000 C   0  0  0  0  0  0  0  0  0  0  0  0
    8.4031    0.0916    0.0000 C   0  0  0  0  0  0  0  0  0  0  0  0
    9.8949   -0.0653    0.0000 C   0  0  0  0  0  0  0  0  0  0  0  0
    7.5215   -1.1220    0.0000 C   0  0  0  0  0  0  0  0  0  0  0  0
   -7.7289   -4.2735    0.0000 C   0  0  0  0  0  0  0  0  0  0  0  0
   10.5049   -1.4355    0.0000 C   0  0  0  0  0  0  0  0  0  0  0  0
    8.1315   -2.4922    0.0000 C   0  0  0  0  0  0  0  0  0  0  0  0
    9.6233   -2.6491    0.0000 C   0  0  0  0  0  0  0  0  0  0  0  0
  1 13  2  0  0  0  0
  2  3  1  0  0  0  0
  2  9  1  0  0  0  0
  2 13  1  0  0  0  0
  3 11  2  0  0  0  0
  4  7  2  0  0  0  0
  4 16  1  0  0  0  0
  5  7  1  0  0  0  0
  5 19  1  0  0  0  0
  5 22  1  0  0  0  0
  6 11  1  0  0  0  0
  8 23  1  0  0  0  0
  8 24  1  0  0  0  0
  8 28  1  0  0  0  0
  9 10  1  0  0  0  0
  9 15  2  0  0  0  0
 10 11  1  0  0  0  0
 10 14  2  0  0  0  0
 12 14  1  0  0  0  0
 12 16  1  0  0  0  0
 12 17  2  0  0  0  0
 13 18  1  0  0  0  0
 15 17  1  0  0  0  0
 16 19  2  0  0  0  0
 18 20  1  0  0  0  0
 18 21  1  0  0  0  0
 20 23  1  0  0  0  0
 21 24  1  0  0  0  0
 22 25  1  0  0  0  0
 25 26  2  0  0  0  0
 25 27  1  0  0  0  0
 26 29  1  0  0  0  0
 27 30  2  0  0  0  0
 29 31  2  0  0  0  0
 30 31  1  0  0  0  0
M  END
> <Value>
5.899998417198648

> <Relation>
<

> <SourceURI>
mol:CHEMBL1978014

$$$$

Generated by Molecular Materials Informatics

 17 18  0  0  0  0  0  0  0  0999 V2000
    1.8096   -0.5065    0.0000 O   0  0  0  0  0  0  0  0  0  0  0  0
    5.7066    0.2434    0.0000 O   0  0  0  0  0  0  0  0  0  0  0  0
   -3.2020   -0.7602    0.0000 N   0  0  0  0  0  0  0  0  0  0  0  0
   -2.5919   -2.1305    0.0000 N   0  0  0  0  0  0  0  0  0  0  0  0
   -0.0965   -3.0885    0.0000 N   0  0  0  0  0  0  0  0  0  0  0  0
   -0.7883   -0.5065    0.0000 C   0  0  0  0  0  0  0  0  0  0  0  0
   -2.0873    0.2434    0.0000 C   0  0  0  0  0  0  0  0  0  0  0  0
    0.5106    0.2434    0.0000 C   0  0  0  0  0  0  0  0  0  0  0  0
   -1.1003   -1.9738    0.0000 C   0  0  0  0  0  0  0  0  0  0  0  0
   -2.0873    1.7434    0.0000 C   0  0  0  0  0  0  0  0  0  0  0  0
    0.5106    1.7434    0.0000 C   0  0  0  0  0  0  0  0  0  0  0  0
   -0.7883    2.4934    0.0000 C   0  0  0  0  0  0  0  0  0  0  0  0
    3.1087    0.2434    0.0000 C   0  0  0  0  0  0  0  0  0  0  0  0
    4.4077   -0.5065    0.0000 C   0  0  0  0  0  0  0  0  0  0  0  0
    3.1087    1.7434    0.0000 C   0  0  0  0  0  0  0  0  0  0  0  0
    7.0057   -0.5065    0.0000 C   0  0  0  0  0  0  0  0  0  0  0  0
    8.3047    0.2434    0.0000 C   0  0  0  0  0  0  0  0  0  0  0  0
  1  8  1  0  0  0  0
  1 13  1  0  0  0  0
  2 14  1  0  0  0  0
  2 16  1  0  0  0  0
  3  4  1  0  0  0  0
  3  7  1  0  0  0  0
  4  9  2  0  0  0  0
  5  9  1  0  0  0  0
  6  7  2  0  0  0  0
  6  8  1  0  0  0  0
  6  9  1  0  0  0  0
  7 10  1  0  0  0  0
  8 11  2  0  0  0  0
 10 12  2  0  0  0  0
 11 12  1  0  0  0  0
 13 14  1  0  0  0  0
 13 15  1  0  0  0  0
 16 17  1  0  0  0  0
M  END
> <Value>
5.300000202445418

> <Relation>
<

> <SourceURI>
mol:CHEMBL2002736

$$$$

Generated by Molecular Materials Informatics

 24 26  0  0  0  0  0  0  0  0999 V2000
    6.3975    2.9062    0.0000 O   0  0  0  0  0  0  0  0  0  0  0  0
   -1.3967   -1.5938    0.0000 N   0  0  0  0  0  0  0  0  0  0  0  0
   -0.0978    0.6562    0.0000 N   0  0  0  0  0  0  0  0  0  0  0  0
   -4.1223   -1.3072    0.0000 N   0  0  0  0  0  0  0  0  0  0  0  0
    1.2013   -1.5938    0.0000 N   0  0  0  0  0  0  0  0  0  0  0  0
    7.6966    0.6562    0.0000 N   0  0  0  0  0  0  0  0  0  0  0  0
   -2.6958    0.6562    0.0000 C   0  0  0  0  0  0  0  0  0  0  0  0
   -2.6958   -0.8437    0.0000 C   0  0  0  0  0  0  0  0  0  0  0  0
   -1.3967    1.4062    0.0000 C   0  0  0  0  0  0  0  0  0  0  0  0
   -0.0978   -0.8437    0.0000 C   0  0  0  0  0  0  0  0  0  0  0  0
   -4.1223    1.1197    0.0000 C   0  0  0  0  0  0  0  0  0  0  0  0
    2.5004   -0.8437    0.0000 C   0  0  0  0  0  0  0  0  0  0  0  0
   -5.0040   -0.0937    0.0000 C   0  0  0  0  0  0  0  0  0  0  0  0
   -1.3967    2.9062    0.0000 C   0  0  0  0  0  0  0  0  0  0  0  0
    5.0984    0.6562    0.0000 C   0  0  0  0  0  0  0  0  0  0  0  0
    2.5004    0.6562    0.0000 C   0  0  0  0  0  0  0  0  0  0  0  0
    3.7995   -1.5938    0.0000 C   0  0  0  0  0  0  0  0  0  0  0  0
    3.7995    1.4062    0.0000 C   0  0  0  0  0  0  0  0  0  0  0  0
    5.0984   -0.8437    0.0000 C   0  0  0  0  0  0  0  0  0  0  0  0
    6.3975    1.4062    0.0000 C   0  0  0  0  0  0  0  0  0  0  0  0
   -2.6958    3.6562    0.0000 C   0  0  0  0  0  0  0  0  0  0  0  0
    8.9955    1.4062    0.0000 C   0  0  0  0  0  0  0  0  0  0  0  0
   10.2946    0.6562    0.0000 C   0  0  0  0  0  0  0  0  0  0  0  0
   11.5937    1.4062    0.0000 C   0  0  0  0  0  0  0  0  0  0  0  0
  1 20  2  0  0  0  0
  2  8  2  0  0  0  0
  2 10  1  0  0  0  0
  3  9  1  0  0  0  0
  3 10  2  0  0  0  0
  4  8  1  0  0  0  0
  4 13  1  0  0  0  0
  5 10  1  0  0  0  0
  5 12  1  0  0  0  0
  6 20  1  0  0  0  0
  6 22  1  0  0  0  0
  7  8  1  0  0  0  0
  7  9  2  0  0  0  0
  7 11  1  0  0  0  0
  9 14  1  0  0  0  0
 11 13  2  0  0  0  0
 12 16  2  0  0  0  0
 12 17  1  0  0  0  0
 14 21  1  0  0  0  0
 15 18  2  0  0  0  0
 15 19  1  0  0  0  0
 15 20  1  0  0  0  0
 16 18  1  0  0  0  0
 17 19  2  0  0  0  0
 22 23  1  0  0  0  0
 23 24  1  0  0  0  0
M  END
> <Value>
5.59999938302362

> <Relation>
=

> <SourceURI>
mol:CHEMBL1997007

$$$$

Generated by Molecular Materials Informatics

 24 26  0  0  0  0  0  0  0  0999 V2000
    1.7212   -6.1687    0.0000 F   0  0  0  0  0  0  0  0  0  0  0  0
    3.2212   -4.6687    0.0000 F   0  0  0  0  0  0  0  0  0  0  0  0
    0.2212   -4.6687    0.0000 F   0  0  0  0  0  0  0  0  0  0  0  0
    1.7212    1.3312    0.0000 O   0  0  0  0  0  0  0  0  0  0  0  0
   -0.8768   -3.1687    0.0000 N   0  0  0  0  0  0  0  0  0  0  0  0
   -0.8768    1.3312    0.0000 N   0  0  0  0  0  0  0  0  0  0  0  0
    0.4222    3.5812    0.0000 N   0  0  0  0  0  0  0  0  0  0  0  0
    3.0202    3.5812    0.0000 N   0  0  0  0  0  0  0  0  0  0  0  0
    3.0202    6.5812    0.0000 N   0  0  0  0  0  0  0  0  0  0  0  0
    0.4222   -2.4187    0.0000 C   0  0  0  0  0  0  0  0  0  0  0  0
    0.4222   -0.9188    0.0000 C   0  0  0  0  0  0  0  0  0  0  0  0
    1.7212   -3.1687    0.0000 C   0  0  0  0  0  0  0  0  0  0  0  0
   -0.8768   -0.1688    0.0000 C   0  0  0  0  0  0  0  0  0  0  0  0
    1.7212   -4.6687    0.0000 C   0  0  0  0  0  0  0  0  0  0  0  0
    1.7212   -0.1688    0.0000 C   0  0  0  0  0  0  0  0  0  0  0  0
    3.0202   -2.4187    0.0000 C   0  0  0  0  0  0  0  0  0  0  0  0
   -2.1759   -0.9188    0.0000 C   0  0  0  0  0  0  0  0  0  0  0  0
    3.0202   -0.9188    0.0000 C   0  0  0  0  0  0  0  0  0  0  0  0
   -2.1759   -2.4187    0.0000 C   0  0  0  0  0  0  0  0  0  0  0  0
    0.4222    2.0812    0.0000 C   0  0  0  0  0  0  0  0  0  0  0  0
    1.7212    4.3312    0.0000 C   0  0  0  0  0  0  0  0  0  0  0  0
    1.7212    5.8313    0.0000 C   0  0  0  0  0  0  0  0  0  0  0  0
    4.3193    4.3312    0.0000 C   0  0  0  0  0  0  0  0  0  0  0  0
    4.3193    5.8313    0.0000 C   0  0  0  0  0  0  0  0  0  0  0  0
  1 14  1  0  0  0  0
  2 14  1  0  0  0  0
  3 14  1  0  0  0  0
  4 20  2  0  0  0  0
  5 10  2  0  0  0  0
  5 19  1  0  0  0  0
  6 13  1  0  0  0  0
  6 20  1  0  0  0  0
  7 20  1  0  0  0  0
  7 21  1  0  0  0  0
  8 21  1  0  0  0  0
  8 23  2  0  0  0  0
  9 22  1  0  0  0  0
  9 24  2  0  0  0  0
 10 11  1  0  0  0  0
 10 12  1  0  0  0  0
 11 13  2  0  0  0  0
 11 15  1  0  0  0  0
 12 14  1  0  0  0  0
 12 16  2  0  0  0  0
 13 17  1  0  0  0  0
 15 18  2  0  0  0  0
 16 18  1  0  0  0  0
 17 19  2  0  0  0  0
 21 22  2  0  0  0  0
 23 24  1  0  0  0  0
M  END
> <Value>
5.899998417198648

> <Relation>
<

> <SourceURI>
mol:CHEMBL1994538

$$$$

Generated by Molecular Materials Informatics

 31 35  0  0  0  0  0  0  0  0999 V2000
   -0.9131   -6.3874    0.0000 O   0  0  0  0  0  0  0  0  0  0  0  0
  -10.0449    1.3213    0.0000 O   0  0  0  0  0  0  0  0  0  0  0  0
   -5.6031    5.2022    0.0000 O   0  0  0  0  0  0  0  0  0  0  0  0
   -3.9209    3.1250    0.0000 N   0  0  0  0  0  0  0  0  0  0  0  0
   -0.9131   -3.9603    0.0000 N   0  0  0  0  0  0  0  0  0  0  0  0
   -3.2949   -5.1739    0.0000 N   0  0  0  0  0  0  0  0  0  0  0  0
  -14.5449    3.9193    0.0000 N   0  0  0  0  0  0  0  0  0  0  0  0
   -5.5449    1.3213    0.0000 C   0  0  0  0  0  0  0  0  0  0  0  0
   -6.2949    0.0222    0.0000 C   0  0  0  0  0  0  0  0  0  0  0  0
   -6.2949    2.6202    0.0000 C   0  0  0  0  0  0  0  0  0  0  0  0
   -5.5449   -1.2768    0.0000 C   0  0  0  0  0  0  0  0  0  0  0  0
   -5.2911    3.7350    0.0000 C   0  0  0  0  0  0  0  0  0  0  0  0
   -7.7949    0.0222    0.0000 C   0  0  0  0  0  0  0  0  0  0  0  0
   -8.5449    1.3213    0.0000 C   0  0  0  0  0  0  0  0  0  0  0  0
   -7.7949    2.6202    0.0000 C   0  0  0  0  0  0  0  0  0  0  0  0
   -4.0776    1.6331    0.0000 C   0  0  0  0  0  0  0  0  0  0  0  0
   -1.7949   -5.1739    0.0000 C   0  0  0  0  0  0  0  0  0  0  0  0
    0.5135   -5.9239    0.0000 C   0  0  0  0  0  0  0  0  0  0  0  0
    0.5135   -4.4239    0.0000 C   0  0  0  0  0  0  0  0  0  0  0  0
   -4.0449   -1.2768    0.0000 C   0  0  0  0  0  0  0  0  0  0  0  0
   -6.2949   -2.5758    0.0000 C   0  0  0  0  0  0  0  0  0  0  0  0
   -4.0449   -3.8748    0.0000 C   0  0  0  0  0  0  0  0  0  0  0  0
   -3.2949   -2.5758    0.0000 C   0  0  0  0  0  0  0  0  0  0  0  0
   -5.5449   -3.8748    0.0000 C   0  0  0  0  0  0  0  0  0  0  0  0
    1.8124   -6.6739    0.0000 C   0  0  0  0  0  0  0  0  0  0  0  0
    1.8124   -3.6739    0.0000 C   0  0  0  0  0  0  0  0  0  0  0  0
    3.1115   -5.9239    0.0000 C   0  0  0  0  0  0  0  0  0  0  0  0
    3.1115   -4.4239    0.0000 C   0  0  0  0  0  0  0  0  0  0  0  0
  -10.7949    2.6202    0.0000 C   0  0  0  0  0  0  0  0  0  0  0  0
  -12.2949    2.6202    0.0000 C   0  0  0  0  0  0  0  0  0  0  0  0
  -13.0449    3.9193    0.0000 C   0  0  0  0  0  0  0  0  0  0  0  0
  1 17  1  0  0  0  0
  1 18  1  0  0  0  0
  2 14  1  0  0  0  0
  2 29  1  0  0  0  0
  3 12  2  0  0  0  0
  4 12  1  0  0  0  0
  4 16  1  0  0  0  0
  5 17  2  0  0  0  0
  5 19  1  0  0  0  0
  6 17  1  0  0  0  0
  6 22  1  0  0  0  0
  7 31  1  0  0  0  0
  8  9  1  0  0  0  0
  8 10  2  0  0  0  0
  8 16  1  0  0  0  0
  9 11  1  0  0  0  0
  9 13  2  0  0  0  0
 10 12  1  0  0  0  0
 10 15  1  0  0  0  0
 11 20  2  0  0  0  0
 11 21  1  0  0  0  0
 13 14  1  0  0  0  0
 14 15  2  0  0  0  0
 18 19  1  0  0  0  0
 18 25  2  0  0  0  0
 19 26  2  0  0  0  0
 20 23  1  0  0  0  0
 21 24  2  0  0  0  0
 22 23  2  0  0  0  0
 22 24  1  0  0  0  0
 25 27  1  0  0  0  0
 26 28  1  0  0  0  0
 27 28  2  0  0  0  0
 29 30  1  0  0  0  0
 30 31  1  0  0  0  0
M  END
> <Value>
5.899998417198648

> <Relation>
<

> <SourceURI>
mol:CHEMBL1975490

$$$$

Generated by Molecular Materials Informatics

 25 27  0  0  0  0  0  0  0  0999 V2000
   -3.8519   -9.8812    0.0000 F   0  0  0  0  0  0  0  0  0  0  0  0
   -2.3519   -8.3813    0.0000 F   0  0  0  0  0  0  0  0  0  0  0  0
   -5.3519   -8.3813    0.0000 F   0  0  0  0  0  0  0  0  0  0  0  0
   -2.5528   -1.6313    0.0000 O   0  0  0  0  0  0  0  0  0  0  0  0
   -2.5528   -6.1312    0.0000 N   0  0  0  0  0  0  0  0  0  0  0  0
    0.0452   -1.6313    0.0000 N   0  0  0  0  0  0  0  0  0  0  0  0
   -1.2539   -3.8813    0.0000 N   0  0  0  0  0  0  0  0  0  0  0  0
    0.0452    2.8687    0.0000 N   0  0  0  0  0  0  0  0  0  0  0  0
    1.3443    0.6188    0.0000 C   0  0  0  0  0  0  0  0  0  0  0  0
    0.0452   -0.1313    0.0000 C   0  0  0  0  0  0  0  0  0  0  0  0
    1.3443    2.1188    0.0000 C   0  0  0  0  0  0  0  0  0  0  0  0
   -3.8519   -6.8813    0.0000 C   0  0  0  0  0  0  0  0  0  0  0  0
   -3.8519   -8.3813    0.0000 C   0  0  0  0  0  0  0  0  0  0  0  0
   -2.5528   -4.6312    0.0000 C   0  0  0  0  0  0  0  0  0  0  0  0
    2.6432   -0.1313    0.0000 C   0  0  0  0  0  0  0  0  0  0  0  0
   -1.2539   -2.3813    0.0000 C   0  0  0  0  0  0  0  0  0  0  0  0
   -1.2539    0.6188    0.0000 C   0  0  0  0  0  0  0  0  0  0  0  0
    2.6432    2.8687    0.0000 C   0  0  0  0  0  0  0  0  0  0  0  0
    3.9423    0.6188    0.0000 C   0  0  0  0  0  0  0  0  0  0  0  0
   -5.1510   -6.1312    0.0000 C   0  0  0  0  0  0  0  0  0  0  0  0
   -3.8519   -3.8813    0.0000 C   0  0  0  0  0  0  0  0  0  0  0  0
   -1.2539    2.1188    0.0000 C   0  0  0  0  0  0  0  0  0  0  0  0
    3.9423    2.1188    0.0000 C   0  0  0  0  0  0  0  0  0  0  0  0
   -5.1510   -4.6312    0.0000 C   0  0  0  0  0  0  0  0  0  0  0  0
    5.2414   -0.1313    0.0000 C   0  0  0  0  0  0  0  0  0  0  0  0
  1 13  1  0  0  0  0
  2 13  1  0  0  0  0
  3 13  1  0  0  0  0
  4 16  2  0  0  0  0
  5 12  2  0  0  0  0
  5 14  1  0  0  0  0
  6 10  1  0  0  0  0
  6 16  1  0  0  0  0
  7 14  1  0  0  0  0
  7 16  1  0  0  0  0
  8 11  1  0  0  0  0
  8 22  2  0  0  0  0
  9 10  1  0  0  0  0
  9 11  1  0  0  0  0
  9 15  2  0  0  0  0
 10 17  2  0  0  0  0
 11 18  2  0  0  0  0
 12 13  1  0  0  0  0
 12 20  1  0  0  0  0
 14 21  2  0  0  0  0
 15 19  1  0  0  0  0
 17 22  1  0  0  0  0
 18 23  1  0  0  0  0
 19 23  2  0  0  0  0
 19 25  1  0  0  0  0
 20 24  2  0  0  0  0
 21 24  1  0  0  0  0
M  END
> <Value>
5.899998417198648

> <Relation>
<

> <SourceURI>
mol:CHEMBL1964444

$$$$

Generated by Molecular Materials Informatics

 26 29  0  0  0  0  0  0  0  0999 V2000
    1.1743    1.3472    0.0000 S   0  0  0  0  0  0  0  0  0  0  0  0
    3.8999   -2.8663    0.0000 O   0  0  0  0  0  0  0  0  0  0  0  0
   -1.2073   -2.4644    0.0000 O   0  0  0  0  0  0  0  0  0  0  0  0
    1.1743   -1.0799    0.0000 N   0  0  0  0  0  0  0  0  0  0  0  0
   -1.2073    0.1337    0.0000 N   0  0  0  0  0  0  0  0  0  0  0  0
   -3.4573   -1.1654    0.0000 N   0  0  0  0  0  0  0  0  0  0  0  0
    2.6008   -0.6163    0.0000 C   0  0  0  0  0  0  0  0  0  0  0  0
    2.6008    0.8837    0.0000 C   0  0  0  0  0  0  0  0  0  0  0  0
    0.2927    0.1337    0.0000 C   0  0  0  0  0  0  0  0  0  0  0  0
    3.8999   -1.3663    0.0000 C   0  0  0  0  0  0  0  0  0  0  0  0
    3.8999    1.6337    0.0000 C   0  0  0  0  0  0  0  0  0  0  0  0
   -5.7073   -2.4644    0.0000 C   0  0  0  0  0  0  0  0  0  0  0  0
   -4.2073   -2.4644    0.0000 C   0  0  0  0  0  0  0  0  0  0  0  0
   -1.9573   -1.1654    0.0000 C   0  0  0  0  0  0  0  0  0  0  0  0
    5.1990   -0.6163    0.0000 C   0  0  0  0  0  0  0  0  0  0  0  0
   -6.4573   -1.1654    0.0000 C   0  0  0  0  0  0  0  0  0  0  0  0
    5.1990    0.8837    0.0000 C   0  0  0  0  0  0  0  0  0  0  0  0
   -6.4573   -3.7635    0.0000 C   0  0  0  0  0  0  0  0  0  0  0  0
   -3.4573   -3.7635    0.0000 C   0  0  0  0  0  0  0  0  0  0  0  0
   -7.9573   -1.1654    0.0000 C   0  0  0  0  0  0  0  0  0  0  0  0
   -5.7073    0.1337    0.0000 C   0  0  0  0  0  0  0  0  0  0  0  0
   -5.7073   -5.0624    0.0000 C   0  0  0  0  0  0  0  0  0  0  0  0
   -4.2073   -5.0624    0.0000 C   0  0  0  0  0  0  0  0  0  0  0  0
   -8.7073    0.1337    0.0000 C   0  0  0  0  0  0  0  0  0  0  0  0
   -6.4573    1.4326    0.0000 C   0  0  0  0  0  0  0  0  0  0  0  0
   -7.9573    1.4326    0.0000 C   0  0  0  0  0  0  0  0  0  0  0  0
  1  8  1  0  0  0  0
  1  9  1  0  0  0  0
  2 10  1  0  0  0  0
  3 14  2  0  0  0  0
  4  7  1  0  0  0  0
  4  9  2  0  0  0  0
  5  9  1  0  0  0  0
  5 14  1  0  0  0  0
  6 13  1  0  0  0  0
  6 14  1  0  0  0  0
  7  8  2  0  0  0  0
  7 10  1  0  0  0  0
  8 11  1  0  0  0  0
 10 15  2  0  0  0  0
 11 17  2  0  0  0  0
 12 13  1  0  0  0  0
 12 16  1  0  0  0  0
 12 18  2  0  0  0  0
 13 19  2  0  0  0  0
 15 17  1  0  0  0  0
 16 20  2  0  0  0  0
 16 21  1  0  0  0  0
 18 22  1  0  0  0  0
 19 23  1  0  0  0  0
 20 24  1  0  0  0  0
 21 25  2  0  0  0  0
 22 23  2  0  0  0  0
 24 26  2  0  0  0  0
 25 26  1  0  0  0  0
M  END
> <Value>
5.300000202445418

> <Relation>
<

> <SourceURI>
mol:CHEMBL2002690

$$$$

Generated by Molecular Materials Informatics

 18 19  0  0  0  0  0  0  0  0999 V2000
   -2.3645   -2.8631    0.0000 S   0  0  0  0  0  0  0  0  0  0  0  0
    3.5815    3.9453    0.0000 O   0  0  0  0  0  0  0  0  0  0  0  0
   -0.3155    1.6953    0.0000 N   0  0  0  0  0  0  0  0  0  0  0  0
    0.9835    3.9453    0.0000 N   0  0  0  0  0  0  0  0  0  0  0  0
   -4.2126    3.9453    0.0000 N   0  0  0  0  0  0  0  0  0  0  0  0
   -5.5115    0.1953    0.0000 N   0  0  0  0  0  0  0  0  0  0  0  0
   -1.6145    0.9453    0.0000 C   0  0  0  0  0  0  0  0  0  0  0  0
   -2.9135    1.6953    0.0000 C   0  0  0  0  0  0  0  0  0  0  0  0
   -1.6145   -0.5547    0.0000 C   0  0  0  0  0  0  0  0  0  0  0  0
   -2.9135    3.1953    0.0000 C   0  0  0  0  0  0  0  0  0  0  0  0
   -0.3155    3.1953    0.0000 C   0  0  0  0  0  0  0  0  0  0  0  0
   -1.6145    3.9453    0.0000 C   0  0  0  0  0  0  0  0  0  0  0  0
   -2.8281   -1.4364    0.0000 C   0  0  0  0  0  0  0  0  0  0  0  0
   -0.4010   -1.4364    0.0000 C   0  0  0  0  0  0  0  0  0  0  0  0
   -4.2126    0.9453    0.0000 C   0  0  0  0  0  0  0  0  0  0  0  0
   -0.8645   -2.8631    0.0000 C   0  0  0  0  0  0  0  0  0  0  0  0
    2.2826    3.1953    0.0000 C   0  0  0  0  0  0  0  0  0  0  0  0
    2.2826    1.6953    0.0000 C   0  0  0  0  0  0  0  0  0  0  0  0
  1 13  1  0  0  0  0
  1 16  1  0  0  0  0
  2 17  2  0  0  0  0
  3  7  2  0  0  0  0
  3 11  1  0  0  0  0
  4 11  1  0  0  0  0
  4 17  1  0  0  0  0
  5 10  1  0  0  0  0
  6 15  3  0  0  0  0
  7  8  1  0  0  0  0
  7  9  1  0  0  0  0
  8 10  2  0  0  0  0
  8 15  1  0  0  0  0
  9 13  2  0  0  0  0
  9 14  1  0  0  0  0
 10 12  1  0  0  0  0
 11 12  2  0  0  0  0
 14 16  2  0  0  0  0
 17 18  1  0  0  0  0
M  END
> <Value>
5.899998417198648

> <Relation>
<

> <SourceURI>
mol:CHEMBL2006567

$$$$

Generated by Molecular Materials Informatics

 17 19  0  0  0  0  0  0  0  0999 V2000
   -2.5400    2.0402    0.0000 Cl  0  0  0  0  0  0  0  0  0  0  0  0
   -2.0763   -1.8135    0.0000 S   0  0  0  0  0  0  0  0  0  0  0  0
    0.6493   -2.1000    0.0000 N   0  0  0  0  0  0  0  0  0  0  0  0
    1.9482    0.1500    0.0000 N   0  0  0  0  0  0  0  0  0  0  0  0
    0.6493    2.4000    0.0000 N   0  0  0  0  0  0  0  0  0  0  0  0
   -0.6498    0.1500    0.0000 C   0  0  0  0  0  0  0  0  0  0  0  0
   -0.6498   -1.3500    0.0000 C   0  0  0  0  0  0  0  0  0  0  0  0
    0.6493    0.9000    0.0000 C   0  0  0  0  0  0  0  0  0  0  0  0
   -2.0763    0.6135    0.0000 C   0  0  0  0  0  0  0  0  0  0  0  0
   -2.9580   -0.6000    0.0000 C   0  0  0  0  0  0  0  0  0  0  0  0
    1.9482   -1.3500    0.0000 C   0  0  0  0  0  0  0  0  0  0  0  0
    1.9482    3.1500    0.0000 C   0  0  0  0  0  0  0  0  0  0  0  0
    1.9482    4.6500    0.0000 C   0  0  0  0  0  0  0  0  0  0  0  0
    3.2473    2.4000    0.0000 C   0  0  0  0  0  0  0  0  0  0  0  0
    3.2473    5.4000    0.0000 C   0  0  0  0  0  0  0  0  0  0  0  0
    4.5464    3.1500    0.0000 C   0  0  0  0  0  0  0  0  0  0  0  0
    4.5464    4.6500    0.0000 C   0  0  0  0  0  0  0  0  0  0  0  0
  1  9  1  0  0  0  0
  2  7  1  0  0  0  0
  2 10  1  0  0  0  0
  3  7  2  0  0  0  0
  3 11  1  0  0  0  0
  4  8  1  0  0  0  0
  4 11  2  0  0  0  0
  5  8  1  0  0  0  0
  5 12  1  0  0  0  0
  6  7  1  0  0  0  0
  6  8  2  0  0  0  0
  6  9  1  0  0  0  0
  9 10  2  0  0  0  0
 12 13  2  0  0  0  0
 12 14  1  0  0  0  0
 13 15  1  0  0  0  0
 14 16  2  0  0  0  0
 15 17  2  0  0  0  0
 16 17  1  0  0  0  0
M  END
> <Value>
5.899998417198648

> <Relation>
<

> <SourceURI>
mol:CHEMBL1986139

$$$$

Generated by Molecular Materials Informatics

 30 33  0  0  0  0  0  0  0  0999 V2000
    0.0000   -3.7875    0.0000 O   0  0  0  0  0  0  0  0  0  0  0  0
   -2.5980   -3.7875    0.0000 N   0  0  0  0  0  0  0  0  0  0  0  0
   -3.8971   -7.5375    0.0000 N   0  0  0  0  0  0  0  0  0  0  0  0
   -2.5980   -0.7875    0.0000 N   0  0  0  0  0  0  0  0  0  0  0  0
    3.8971  -12.0375    0.0000 N   0  0  0  0  0  0  0  0  0  0  0  0
    1.2991    1.4625    0.0000 C   0  0  0  0  0  0  0  0  0  0  0  0
    0.0000    0.7125    0.0000 C   0  0  0  0  0  0  0  0  0  0  0  0
    1.2991    2.9625    0.0000 C   0  0  0  0  0  0  0  0  0  0  0  0
    0.0000   -0.7875    0.0000 C   0  0  0  0  0  0  0  0  0  0  0  0
   -1.2991   -1.5375    0.0000 C   0  0  0  0  0  0  0  0  0  0  0  0
   -1.2991   -3.0375    0.0000 C   0  0  0  0  0  0  0  0  0  0  0  0
   -1.2991    1.4625    0.0000 C   0  0  0  0  0  0  0  0  0  0  0  0
   -2.5980   -5.2875    0.0000 C   0  0  0  0  0  0  0  0  0  0  0  0
    2.5980    0.7125    0.0000 C   0  0  0  0  0  0  0  0  0  0  0  0
    0.0000    3.7125    0.0000 C   0  0  0  0  0  0  0  0  0  0  0  0
    2.5980    3.7125    0.0000 C   0  0  0  0  0  0  0  0  0  0  0  0
   -1.2991   -7.5375    0.0000 C   0  0  0  0  0  0  0  0  0  0  0  0
   -1.2991    2.9625    0.0000 C   0  0  0  0  0  0  0  0  0  0  0  0
   -1.2991   -6.0375    0.0000 C   0  0  0  0  0  0  0  0  0  0  0  0
    3.8971    1.4625    0.0000 C   0  0  0  0  0  0  0  0  0  0  0  0
   -3.8971   -6.0375    0.0000 C   0  0  0  0  0  0  0  0  0  0  0  0
    3.8971    2.9625    0.0000 C   0  0  0  0  0  0  0  0  0  0  0  0
   -2.5980   -8.2875    0.0000 C   0  0  0  0  0  0  0  0  0  0  0  0
    0.0000   -8.2875    0.0000 C   0  0  0  0  0  0  0  0  0  0  0  0
    1.2991  -10.5375    0.0000 C   0  0  0  0  0  0  0  0  0  0  0  0
    0.0000   -9.7875    0.0000 C   0  0  0  0  0  0  0  0  0  0  0  0
    1.2991  -12.0375    0.0000 C   0  0  0  0  0  0  0  0  0  0  0  0
    2.5980   -9.7875    0.0000 C   0  0  0  0  0  0  0  0  0  0  0  0
    2.5980  -12.7875    0.0000 C   0  0  0  0  0  0  0  0  0  0  0  0
    3.8971  -10.5375    0.0000 C   0  0  0  0  0  0  0  0  0  0  0  0
  1 11  2  0  0  0  0
  2 11  1  0  0  0  0
  2 13  1  0  0  0  0
  3 21  1  0  0  0  0
  3 23  2  0  0  0  0
  4 10  1  0  0  0  0
  5 29  2  0  0  0  0
  5 30  1  0  0  0  0
  6  7  1  0  0  0  0
  6  8  1  0  0  0  0
  6 14  2  0  0  0  0
  7  9  1  0  0  0  0
  7 12  2  0  0  0  0
  8 15  1  0  0  0  0
  8 16  2  0  0  0  0
  9 10  1  0  0  0  0
 10 11  1  0  0  0  0
 12 18  1  0  0  0  0
 13 19  1  0  0  0  0
 13 21  2  0  0  0  0
 14 20  1  0  0  0  0
 15 18  2  0  0  0  0
 16 22  1  0  0  0  0
 17 19  2  0  0  0  0
 17 23  1  0  0  0  0
 24 17  1  0  0  0  0
 20 22  2  0  0  0  0
 24 26  2  0  0  0  0
 25 26  1  0  0  0  0
 25 27  2  0  0  0  0
 25 28  1  0  0  0  0
 27 29  1  0  0  0  0
 28 30  2  0  0  0  0
M  END
> <Value>
5.899998417198648

> <Relation>
<

> <SourceURI>
mol:CHEMBL1985580

$$$$

Generated by Molecular Materials Informatics

 25 27  0  0  0  0  0  0  0  0999 V2000
    2.9355    4.0313    0.0000 Cl  0  0  0  0  0  0  0  0  0  0  0  0
   -3.5596  -10.2188    0.0000 F   0  0  0  0  0  0  0  0  0  0  0  0
   -5.0596   -8.7188    0.0000 F   0  0  0  0  0  0  0  0  0  0  0  0
   -2.0596   -8.7188    0.0000 F   0  0  0  0  0  0  0  0  0  0  0  0
   -2.2605   -1.9687    0.0000 O   0  0  0  0  0  0  0  0  0  0  0  0
    0.3375   -1.9687    0.0000 N   0  0  0  0  0  0  0  0  0  0  0  0
   -2.2605   -6.4688    0.0000 N   0  0  0  0  0  0  0  0  0  0  0  0
    0.3375    2.5312    0.0000 N   0  0  0  0  0  0  0  0  0  0  0  0
   -0.9616   -4.2188    0.0000 N   0  0  0  0  0  0  0  0  0  0  0  0
    1.6366    0.2813    0.0000 C   0  0  0  0  0  0  0  0  0  0  0  0
    1.6366    1.7813    0.0000 C   0  0  0  0  0  0  0  0  0  0  0  0
    0.3375   -0.4687    0.0000 C   0  0  0  0  0  0  0  0  0  0  0  0
   -3.5596   -7.2188    0.0000 C   0  0  0  0  0  0  0  0  0  0  0  0
   -3.5596   -8.7188    0.0000 C   0  0  0  0  0  0  0  0  0  0  0  0
    2.9355    2.5312    0.0000 C   0  0  0  0  0  0  0  0  0  0  0  0
   -2.2605   -4.9688    0.0000 C   0  0  0  0  0  0  0  0  0  0  0  0
    2.9355   -0.4687    0.0000 C   0  0  0  0  0  0  0  0  0  0  0  0
   -0.9616    0.2813    0.0000 C   0  0  0  0  0  0  0  0  0  0  0  0
   -0.9616   -2.7188    0.0000 C   0  0  0  0  0  0  0  0  0  0  0  0
   -4.8587   -6.4688    0.0000 C   0  0  0  0  0  0  0  0  0  0  0  0
   -0.9616    1.7813    0.0000 C   0  0  0  0  0  0  0  0  0  0  0  0
    4.2346    1.7813    0.0000 C   0  0  0  0  0  0  0  0  0  0  0  0
   -3.5596   -4.2188    0.0000 C   0  0  0  0  0  0  0  0  0  0  0  0
    4.2346    0.2813    0.0000 C   0  0  0  0  0  0  0  0  0  0  0  0
   -4.8587   -4.9688    0.0000 C   0  0  0  0  0  0  0  0  0  0  0  0
  1 15  1  0  0  0  0
  2 14  1  0  0  0  0
  3 14  1  0  0  0  0
  4 14  1  0  0  0  0
  5 19  2  0  0  0  0
  6 12  1  0  0  0  0
  6 19  1  0  0  0  0
  7 13  1  0  0  0  0
  7 16  2  0  0  0  0
  8 11  1  0  0  0  0
  8 21  2  0  0  0  0
  9 16  1  0  0  0  0
  9 19  1  0  0  0  0
 10 11  1  0  0  0  0
 10 12  1  0  0  0  0
 10 17  2  0  0  0  0
 11 15  2  0  0  0  0
 12 18  2  0  0  0  0
 13 14  1  0  0  0  0
 13 20  2  0  0  0  0
 15 22  1  0  0  0  0
 16 23  1  0  0  0  0
 17 24  1  0  0  0  0
 18 21  1  0  0  0  0
 20 25  1  0  0  0  0
 22 24  2  0  0  0  0
 23 25  2  0  0  0  0
M  END
> <Value>
5.899998417198648

> <Relation>
<

> <SourceURI>
mol:CHEMBL1980540

$$$$

Generated by Molecular Materials Informatics

 25 28  0  0  0  0  0  0  0  0999 V2000
   -7.4769   -9.5736    0.0000 C   0  0  0  0  0  0  0  0  0  0  0  0
   -7.4791  -11.0780    0.0000 N   0  0  0  0  0  0  0  0  0  0  0  0
   -6.1792  -11.8285    0.0000 C   0  0  0  0  0  0  0  0  0  0  0  0
   -4.8766  -11.0771    0.0000 C   0  0  0  0  0  0  0  0  0  0  0  0
   -4.8819   -9.5670    0.0000 C   0  0  0  0  0  0  0  0  0  0  0  0
   -6.1825   -8.8230    0.0000 C   0  0  0  0  0  0  0  0  0  0  0  0
   -3.5821   -8.8184    0.0000 C   0  0  0  0  0  0  0  0  0  0  0  0
   -2.2096   -9.4285    0.0000 N   0  0  0  0  0  0  0  0  0  0  0  0
   -1.2049   -8.3148    0.0000 C   0  0  0  0  0  0  0  0  0  0  0  0
   -1.9533   -7.0149    0.0000 N   0  0  0  0  0  0  0  0  0  0  0  0
   -3.4208   -7.3255    0.0000 C   0  0  0  0  0  0  0  0  0  0  0  0
    0.2875   -8.2821    0.0000 C   0  0  0  0  0  0  0  0  0  0  0  0
    1.0626   -9.5688    0.0000 C   0  0  0  0  0  0  0  0  0  0  0  0
    2.5609   -9.5392    0.0000 C   0  0  0  0  0  0  0  0  0  0  0  0
    3.2862   -8.2244    0.0000 C   0  0  0  0  0  0  0  0  0  0  0  0
    2.5020   -6.9366    0.0000 C   0  0  0  0  0  0  0  0  0  0  0  0
    1.0063   -6.9724    0.0000 C   0  0  0  0  0  0  0  0  0  0  0  0
   -4.5305   -6.3240    0.0000 C   0  0  0  0  0  0  0  0  0  0  0  0
   -4.2130   -4.8558    0.0000 C   0  0  0  0  0  0  0  0  0  0  0  0
   -5.3243   -3.8503    0.0000 C   0  0  0  0  0  0  0  0  0  0  0  0
   -6.7536   -4.3109    0.0000 C   0  0  0  0  0  0  0  0  0  0  0  0
   -7.0653   -5.7862    0.0000 C   0  0  0  0  0  0  0  0  0  0  0  0
   -5.9514   -6.7851    0.0000 C   0  0  0  0  0  0  0  0  0  0  0  0
   -7.8676   -3.3065    0.0000 F   0  0  0  0  0  0  0  0  0  0  0  0
    4.7858   -8.1921    0.0000 O   0  0  0  0  0  0  0  0  0  0  0  0
  6  1  1  0  0  0  0
 12 13  2  0  0  0  0
  1  2  2  0  0  0  0
 13 14  1  0  0  0  0
  5  7  1  0  0  0  0
 14 15  2  0  0  0  0
  7  8  1  0  0  0  0
 15 16  1  0  0  0  0
  3  4  2  0  0  0  0
 16 17  2  0  0  0  0
 17 12  1  0  0  0  0
  9 12  1  0  0  0  0
  4  5  1  0  0  0  0
 18 19  2  0  0  0  0
  2  3  1  0  0  0  0
 19 20  1  0  0  0  0
  8  9  1  0  0  0  0
 20 21  2  0  0  0  0
  9 10  2  0  0  0  0
 21 22  1  0  0  0  0
 10 11  1  0  0  0  0
 22 23  2  0  0  0  0
 23 18  1  0  0  0  0
 11 18  1  0  0  0  0
 11  7  2  0  0  0  0
 21 24  1  0  0  0  0
  5  6  2  0  0  0  0
 15 25  1  0  0  0  0
M  END
> <Value>
5.300000202445418

> <Relation>
<

> <SourceURI>
mol:CHEMBL278041

$$$$

Generated by Molecular Materials Informatics

 33 36  0  0  0  0  0  0  0  0999 V2000
    0.5007    3.6107    0.0000 S   0  0  0  0  0  0  0  0  0  0  0  0
   -3.8244   -3.7199    0.0000 O   0  0  0  0  0  0  0  0  0  0  0  0
    4.5254    1.6470    0.0000 N   0  0  0  0  0  0  0  0  0  0  0  0
    3.2263   -0.6030    0.0000 N   0  0  0  0  0  0  0  0  0  0  0  0
   -1.3535   -4.5228    0.0000 N   0  0  0  0  0  0  0  0  0  0  0  0
   -3.2843   -6.2611    0.0000 N   0  0  0  0  0  0  0  0  0  0  0  0
    4.5254    9.1470    0.0000 N   0  0  0  0  0  0  0  0  0  0  0  0
    1.9272    1.6470    0.0000 C   0  0  0  0  0  0  0  0  0  0  0  0
    1.9272    3.1470    0.0000 C   0  0  0  0  0  0  0  0  0  0  0  0
    0.5007    1.1836    0.0000 C   0  0  0  0  0  0  0  0  0  0  0  0
    3.2263    0.8970    0.0000 C   0  0  0  0  0  0  0  0  0  0  0  0
    3.2263    3.8970    0.0000 C   0  0  0  0  0  0  0  0  0  0  0  0
    0.0372   -0.2430    0.0000 C   0  0  0  0  0  0  0  0  0  0  0  0
   -0.3810    2.3970    0.0000 C   0  0  0  0  0  0  0  0  0  0  0  0
    4.5254    3.1470    0.0000 C   0  0  0  0  0  0  0  0  0  0  0  0
    1.0408   -1.3577    0.0000 C   0  0  0  0  0  0  0  0  0  0  0  0
   -1.4301   -0.5548    0.0000 C   0  0  0  0  0  0  0  0  0  0  0  0
    3.2263    5.3970    0.0000 C   0  0  0  0  0  0  0  0  0  0  0  0
   -0.8899   -3.0962    0.0000 C   0  0  0  0  0  0  0  0  0  0  0  0
    0.5772   -2.7842    0.0000 C   0  0  0  0  0  0  0  0  0  0  0  0
   -1.8937   -1.9815    0.0000 C   0  0  0  0  0  0  0  0  0  0  0  0
    3.2263    6.8970    0.0000 C   0  0  0  0  0  0  0  0  0  0  0  0
   -2.8206   -4.8346    0.0000 C   0  0  0  0  0  0  0  0  0  0  0  0
   -4.7513   -6.5731    0.0000 C   0  0  0  0  0  0  0  0  0  0  0  0
    3.2263    8.3970    0.0000 C   0  0  0  0  0  0  0  0  0  0  0  0
   -5.2150   -7.9997    0.0000 C   0  0  0  0  0  0  0  0  0  0  0  0
   -5.7552   -5.4584    0.0000 C   0  0  0  0  0  0  0  0  0  0  0  0
   -6.6823   -8.3115    0.0000 C   0  0  0  0  0  0  0  0  0  0  0  0
   -7.2224   -5.7702    0.0000 C   0  0  0  0  0  0  0  0  0  0  0  0
   -7.6859   -7.1968    0.0000 C   0  0  0  0  0  0  0  0  0  0  0  0
   -7.1457   -9.7380    0.0000 C   0  0  0  0  0  0  0  0  0  0  0  0
    4.5254   10.6470    0.0000 C   0  0  0  0  0  0  0  0  0  0  0  0
    5.8243    8.3970    0.0000 C   0  0  0  0  0  0  0  0  0  0  0  0
  1  9  1  0  0  0  0
  1 14  1  0  0  0  0
  2 23  2  0  0  0  0
  3 11  2  0  0  0  0
  3 15  1  0  0  0  0
  4 11  1  0  0  0  0
  5 19  1  0  0  0  0
  5 23  1  0  0  0  0
  6 23  1  0  0  0  0
  6 24  1  0  0  0  0
  7 25  1  0  0  0  0
  7 32  1  0  0  0  0
  7 33  1  0  0  0  0
  8  9  2  0  0  0  0
  8 10  1  0  0  0  0
  8 11  1  0  0  0  0
  9 12  1  0  0  0  0
 10 13  1  0  0  0  0
 10 14  2  0  0  0  0
 12 15  2  0  0  0  0
 12 18  1  0  0  0  0
 13 16  2  0  0  0  0
 13 17  1  0  0  0  0
 16 20  1  0  0  0  0
 17 21  2  0  0  0  0
 18 22  3  0  0  0  0
 19 20  2  0  0  0  0
 19 21  1  0  0  0  0
 22 25  1  0  0  0  0
 24 26  1  0  0  0  0
 24 27  2  0  0  0  0
 26 28  2  0  0  0  0
 27 29  1  0  0  0  0
 28 30  1  0  0  0  0
 28 31  1  0  0  0  0
 29 30  2  0  0  0  0
M  END
> <Value>
5.899998417198648

> <Relation>
<

> <SourceURI>
mol:CHEMBL1979883

$$$$

Generated by Molecular Materials Informatics

 24 27  0  0  0  0  0  0  0  0999 V2000
   -4.6828    3.0608    0.0000 Cl  0  0  0  0  0  0  0  0  0  0  0  0
   -0.2811    2.1253    0.0000 N   0  0  0  0  0  0  0  0  0  0  0  0
   -0.8213   -2.8430    0.0000 N   0  0  0  0  0  0  0  0  0  0  0  0
   -2.2118    3.8637    0.0000 N   0  0  0  0  0  0  0  0  0  0  0  0
    1.9043   -3.1296    0.0000 N   0  0  0  0  0  0  0  0  0  0  0  0
    0.2591    4.6666    0.0000 N   0  0  0  0  0  0  0  0  0  0  0  0
   -3.6026    8.1435    0.0000 N   0  0  0  0  0  0  0  0  0  0  0  0
   -0.8213   -0.4161    0.0000 C   0  0  0  0  0  0  0  0  0  0  0  0
    0.6053   -0.8796    0.0000 C   0  0  0  0  0  0  0  0  0  0  0  0
   -1.2849    1.0106    0.0000 C   0  0  0  0  0  0  0  0  0  0  0  0
    0.6053   -2.3796    0.0000 C   0  0  0  0  0  0  0  0  0  0  0  0
   -1.7029   -1.6296    0.0000 C   0  0  0  0  0  0  0  0  0  0  0  0
   -0.7448    3.5519    0.0000 C   0  0  0  0  0  0  0  0  0  0  0  0
   -2.7520    1.3224    0.0000 C   0  0  0  0  0  0  0  0  0  0  0  0
   -3.2157    2.7490    0.0000 C   0  0  0  0  0  0  0  0  0  0  0  0
    1.9043   -0.1296    0.0000 C   0  0  0  0  0  0  0  0  0  0  0  0
   -0.2046    6.0932    0.0000 C   0  0  0  0  0  0  0  0  0  0  0  0
    3.2033   -0.8796    0.0000 C   0  0  0  0  0  0  0  0  0  0  0  0
    3.2033   -2.3796    0.0000 C   0  0  0  0  0  0  0  0  0  0  0  0
   -1.6717    6.4050    0.0000 C   0  0  0  0  0  0  0  0  0  0  0  0
    0.7993    7.2079    0.0000 C   0  0  0  0  0  0  0  0  0  0  0  0
   -2.1353    7.8315    0.0000 C   0  0  0  0  0  0  0  0  0  0  0  0
    0.3356    8.6345    0.0000 C   0  0  0  0  0  0  0  0  0  0  0  0
   -1.1317    8.9463    0.0000 C   0  0  0  0  0  0  0  0  0  0  0  0
  1 15  1  0  0  0  0
  2 10  2  0  0  0  0
  2 13  1  0  0  0  0
  3 11  1  0  0  0  0
  3 12  1  0  0  0  0
  4 13  2  0  0  0  0
  4 15  1  0  0  0  0
  5 11  2  0  0  0  0
  5 19  1  0  0  0  0
  6 13  1  0  0  0  0
  6 17  1  0  0  0  0
  7 22  1  0  0  0  0
  8  9  1  0  0  0  0
  8 10  1  0  0  0  0
  8 12  2  0  0  0  0
  9 11  1  0  0  0  0
  9 16  2  0  0  0  0
 10 14  1  0  0  0  0
 14 15  2  0  0  0  0
 16 18  1  0  0  0  0
 17 20  1  0  0  0  0
 17 21  1  0  0  0  0
 18 19  2  0  0  0  0
 20 22  1  0  0  0  0
 21 23  1  0  0  0  0
 22 24  1  0  0  0  0
 23 24  1  0  0  0  0
M  END
> <Value>
7.899974269892137

> <Relation>
=

> <SourceURI>
mol:CHEMBL1998432

$$$$

Generated by Molecular Materials Informatics

 20 23  0  0  0  0  0  0  0  0999 V2000
   -1.5701   -5.3919    0.0000 O   0  0  0  0  0  0  0  0  0  0  0  0
   -3.8119   -3.9362    0.0000 N   0  0  0  0  0  0  0  0  0  0  0  0
    0.2207    1.4428    0.0000 N   0  0  0  0  0  0  0  0  0  0  0  0
   -1.7099   -2.7225    0.0000 C   0  0  0  0  0  0  0  0  0  0  0  0
   -2.8246   -1.7189    0.0000 C   0  0  0  0  0  0  0  0  0  0  0  0
   -4.1237   -2.4689    0.0000 C   0  0  0  0  0  0  0  0  0  0  0  0
    0.2207   -0.9842    0.0000 C   0  0  0  0  0  0  0  0  0  0  0  0
   -2.3201   -4.0929    0.0000 C   0  0  0  0  0  0  0  0  0  0  0  0
    1.6472   -0.5206    0.0000 C   0  0  0  0  0  0  0  0  0  0  0  0
   -0.2427   -2.4107    0.0000 C   0  0  0  0  0  0  0  0  0  0  0  0
    1.6472    0.9794    0.0000 C   0  0  0  0  0  0  0  0  0  0  0  0
   -0.6609    0.2294    0.0000 C   0  0  0  0  0  0  0  0  0  0  0  0
   -2.8246   -0.2190    0.0000 C   0  0  0  0  0  0  0  0  0  0  0  0
   -5.4228   -1.7189    0.0000 C   0  0  0  0  0  0  0  0  0  0  0  0
    2.9463   -1.2706    0.0000 C   0  0  0  0  0  0  0  0  0  0  0  0
    2.9463    1.7293    0.0000 C   0  0  0  0  0  0  0  0  0  0  0  0
   -4.1237    0.5310    0.0000 C   0  0  0  0  0  0  0  0  0  0  0  0
   -5.4228   -0.2190    0.0000 C   0  0  0  0  0  0  0  0  0  0  0  0
    4.2454   -0.5206    0.0000 C   0  0  0  0  0  0  0  0  0  0  0  0
    4.2454    0.9794    0.0000 C   0  0  0  0  0  0  0  0  0  0  0  0
  1  8  2  0  0  0  0
  2  6  1  0  0  0  0
  2  8  1  0  0  0  0
  3 11  1  0  0  0  0
  3 12  1  0  0  0  0
  4  5  1  0  0  0  0
  4  8  1  0  0  0  0
  4 10  2  0  0  0  0
  5  6  1  0  0  0  0
  5 13  2  0  0  0  0
  6 14  2  0  0  0  0
  7  9  1  0  0  0  0
 10  7  1  0  0  0  0
  7 12  2  0  0  0  0
  9 11  1  0  0  0  0
  9 15  2  0  0  0  0
 11 16  2  0  0  0  0
 13 17  1  0  0  0  0
 14 18  1  0  0  0  0
 15 19  1  0  0  0  0
 16 20  1  0  0  0  0
 17 18  2  0  0  0  0
 19 20  2  0  0  0  0
M  END
> <Value>
5.499999678657065

> <Relation>
=

> <SourceURI>
mol:CHEMBL1986590

$$$$

Generated by Molecular Materials Informatics

 20 21  0  0  0  0  0  0  0  0999 V2000
   -3.7409    2.2237    0.0000 O   0  0  0  0  0  0  0  0  0  0  0  0
   -1.1802   -0.3371    0.0000 O   0  0  0  0  0  0  0  0  0  0  0  0
   -1.1802    4.7842    0.0000 N   0  0  0  0  0  0  0  0  0  0  0  0
    1.3805    2.2237    0.0000 N   0  0  0  0  0  0  0  0  0  0  0  0
    3.6305   -1.6734    0.0000 N   0  0  0  0  0  0  0  0  0  0  0  0
   -1.1802    3.2842    0.0000 C   0  0  0  0  0  0  0  0  0  0  0  0
   -0.1195    2.2237    0.0000 C   0  0  0  0  0  0  0  0  0  0  0  0
   -2.2409    2.2237    0.0000 C   0  0  0  0  0  0  0  0  0  0  0  0
   -1.1802    1.1629    0.0000 C   0  0  0  0  0  0  0  0  0  0  0  0
    0.1189    5.5342    0.0000 C   0  0  0  0  0  0  0  0  0  0  0  0
    2.1305    0.9246    0.0000 C   0  0  0  0  0  0  0  0  0  0  0  0
    0.1189    7.0342    0.0000 C   0  0  0  0  0  0  0  0  0  0  0  0
    1.3805   -0.3745    0.0000 C   0  0  0  0  0  0  0  0  0  0  0  0
    3.6305    0.9246    0.0000 C   0  0  0  0  0  0  0  0  0  0  0  0
    1.4178    4.7842    0.0000 C   0  0  0  0  0  0  0  0  0  0  0  0
    0.1189    8.5342    0.0000 C   0  0  0  0  0  0  0  0  0  0  0  0
    1.6189    7.0342    0.0000 C   0  0  0  0  0  0  0  0  0  0  0  0
   -1.3811    7.0342    0.0000 C   0  0  0  0  0  0  0  0  0  0  0  0
    2.1305   -1.6734    0.0000 C   0  0  0  0  0  0  0  0  0  0  0  0
    4.3805   -0.3745    0.0000 C   0  0  0  0  0  0  0  0  0  0  0  0
  1  8  2  0  0  0  0
  2  9  2  0  0  0  0
  3  6  1  0  0  0  0
  3 10  1  0  0  0  0
  4  7  1  0  0  0  0
  4 11  1  0  0  0  0
  5 19  2  0  0  0  0
  5 20  1  0  0  0  0
  6  7  2  0  0  0  0
  6  8  1  0  0  0  0
  7  9  1  0  0  0  0
  8  9  1  0  0  0  0
 10 12  1  0  0  0  0
 10 15  1  0  0  0  0
 11 13  2  0  0  0  0
 11 14  1  0  0  0  0
 12 16  1  0  0  0  0
 12 17  1  0  0  0  0
 12 18  1  0  0  0  0
 13 19  1  0  0  0  0
 14 20  2  0  0  0  0
M  END
> <Value>
7.100015437450609

> <Relation>
=

> <SourceURI>
mol:CHEMBL1986186

$$$$

Generated by Molecular Materials Informatics

 21 24  0  0  0  0  0  0  0  0999 V2000
    4.5359   -8.5228    0.0000 C   0  0  0  0  0  0  0  0  0  0  0  0
    4.5561  -10.0262    0.0000 C   0  0  0  0  0  0  0  0  0  0  0  0
    5.8662  -10.7574    0.0000 C   0  0  0  0  0  0  0  0  0  0  0  0
    5.8185   -7.7536    0.0000 C   0  0  0  0  0  0  0  0  0  0  0  0
    7.1294   -8.4779    0.0000 C   0  0  0  0  0  0  0  0  0  0  0  0
    7.1523   -9.9880    0.0000 C   0  0  0  0  0  0  0  0  0  0  0  0
    8.5956  -10.4330    0.0000 N   0  0  0  0  0  0  0  0  0  0  0  0
    9.4648   -9.1977    0.0000 N   0  0  0  0  0  0  0  0  0  0  0  0
    8.5585   -7.9896    0.0000 C   0  0  0  0  0  0  0  0  0  0  0  0
    3.2263   -7.7927    0.0000 C   0  0  0  0  0  0  0  0  0  0  0  0
    3.0545   -6.2962    0.0000 C   0  0  0  0  0  0  0  0  0  0  0  0
    1.5841   -6.0062    0.0000 C   0  0  0  0  0  0  0  0  0  0  0  0
    0.8532   -7.3163    0.0000 N   0  0  0  0  0  0  0  0  0  0  0  0
    1.8733   -8.4152    0.0000 O   0  0  0  0  0  0  0  0  0  0  0  0
    0.8040   -4.7260    0.0000 C   0  0  0  0  0  0  0  0  0  0  0  0
    1.5228   -3.4102    0.0000 N   0  0  0  0  0  0  0  0  0  0  0  0
    3.0236   -3.3815    0.0000 C   0  0  0  0  0  0  0  0  0  0  0  0
    3.7425   -2.0730    0.0000 C   0  0  0  0  0  0  0  0  0  0  0  0
    2.9687   -0.7882    0.0000 C   0  0  0  0  0  0  0  0  0  0  0  0
    1.4679   -0.8200    0.0000 C   0  0  0  0  0  0  0  0  0  0  0  0
    0.7409   -2.1369    0.0000 C   0  0  0  0  0  0  0  0  0  0  0  0
  1 10  1  0  0  0  0
 10 11  2  0  0  0  0
  5  6  1  0  0  0  0
  2  3  1  0  0  0  0
  3  6  2  0  0  0  0
 11 12  1  0  0  0  0
 12 13  2  0  0  0  0
 13 14  1  0  0  0  0
 14 10  1  0  0  0  0
  1  2  2  0  0  0  0
 12 15  1  0  0  0  0
  5  4  2  0  0  0  0
 15 16  1  0  0  0  0
 16 17  1  0  0  0  0
  6  7  1  0  0  0  0
  7  8  1  0  0  0  0
  8  9  2  0  0  0  0
  9  5  1  0  0  0  0
  4  1  1  0  0  0  0
 16 21  1  0  0  0  0
 17 18  1  0  0  0  0
 18 19  1  0  0  0  0
 19 20  1  0  0  0  0
 20 21  1  0  0  0  0
M  END
> <Value>
6.0999990348465305

> <Relation>
=

> <SourceURI>
mol:CHEMBL1682360

$$$$

Generated by Molecular Materials Informatics

 20 22  0  0  0  0  0  0  0  0999 V2000
    3.2473    2.4000    0.0000 Cl  0  0  0  0  0  0  0  0  0  0  0  0
    0.6493   -2.1000    0.0000 O   0  0  0  0  0  0  0  0  0  0  0  0
   -2.0763   -1.8135    0.0000 N   0  0  0  0  0  0  0  0  0  0  0  0
   -2.9580   -0.6000    0.0000 N   0  0  0  0  0  0  0  0  0  0  0  0
    3.2473   -2.1000    0.0000 N   0  0  0  0  0  0  0  0  0  0  0  0
    4.5464    1.6500    0.0000 N   0  0  0  0  0  0  0  0  0  0  0  0
   -0.6498    0.1500    0.0000 C   0  0  0  0  0  0  0  0  0  0  0  0
    0.6493    0.9000    0.0000 C   0  0  0  0  0  0  0  0  0  0  0  0
   -0.6498   -1.3500    0.0000 C   0  0  0  0  0  0  0  0  0  0  0  0
    1.9482    0.1500    0.0000 C   0  0  0  0  0  0  0  0  0  0  0  0
    0.6493    2.4000    0.0000 C   0  0  0  0  0  0  0  0  0  0  0  0
   -2.0763    0.6135    0.0000 C   0  0  0  0  0  0  0  0  0  0  0  0
    1.9482   -1.3500    0.0000 C   0  0  0  0  0  0  0  0  0  0  0  0
    1.9482    3.1500    0.0000 C   0  0  0  0  0  0  0  0  0  0  0  0
    3.2473    0.9000    0.0000 C   0  0  0  0  0  0  0  0  0  0  0  0
   -0.6498    3.1500    0.0000 C   0  0  0  0  0  0  0  0  0  0  0  0
   -2.5400    2.0402    0.0000 C   0  0  0  0  0  0  0  0  0  0  0  0
    1.9482    4.6500    0.0000 C   0  0  0  0  0  0  0  0  0  0  0  0
   -0.6498    4.6500    0.0000 C   0  0  0  0  0  0  0  0  0  0  0  0
    0.6493    5.4000    0.0000 C   0  0  0  0  0  0  0  0  0  0  0  0
  1 14  1  0  0  0  0
  2  9  1  0  0  0  0
  2 13  1  0  0  0  0
  3  4  1  0  0  0  0
  3  9  1  0  0  0  0
  4 12  2  0  0  0  0
  5 13  1  0  0  0  0
  6 15  3  0  0  0  0
  7  8  1  0  0  0  0
  7  9  2  0  0  0  0
  7 12  1  0  0  0  0
  8 10  1  0  0  0  0
  8 11  1  0  0  0  0
 10 13  2  0  0  0  0
 10 15  1  0  0  0  0
 11 14  1  0  0  0  0
 11 16  2  0  0  0  0
 12 17  1  0  0  0  0
 14 18  2  0  0  0  0
 16 19  1  0  0  0  0
 18 20  1  0  0  0  0
 19 20  2  0  0  0  0
M  END
> <Value>
5.899998417198648

> <Relation>
<

> <SourceURI>
mol:CHEMBL1970189

$$$$

Generated by Molecular Materials Informatics

 25 28  0  0  0  0  0  0  0  0999 V2000
   -5.2179    1.3090    0.0000 O   0  0  0  0  0  0  0  0  0  0  0  0
    0.8986    4.3090    0.0000 O   0  0  0  0  0  0  0  0  0  0  0  0
   -0.5280    1.7726    0.0000 N   0  0  0  0  0  0  0  0  0  0  0  0
   -0.5280   -0.6544    0.0000 N   0  0  0  0  0  0  0  0  0  0  0  0
    3.4967    4.3090    0.0000 N   0  0  0  0  0  0  0  0  0  0  0  0
   -3.7914    1.7726    0.0000 N   0  0  0  0  0  0  0  0  0  0  0  0
    3.4967   -0.1910    0.0000 N   0  0  0  0  0  0  0  0  0  0  0  0
   -5.2179   -0.1910    0.0000 N   0  0  0  0  0  0  0  0  0  0  0  0
   -3.3278   -2.0810    0.0000 N   0  0  0  0  0  0  0  0  0  0  0  0
    5.7307    7.4830    0.0000 N   0  0  0  0  0  0  0  0  0  0  0  0
    0.8986    1.3090    0.0000 C   0  0  0  0  0  0  0  0  0  0  0  0
   -1.4096    0.5590    0.0000 C   0  0  0  0  0  0  0  0  0  0  0  0
    0.8986   -0.1910    0.0000 C   0  0  0  0  0  0  0  0  0  0  0  0
    2.1977    2.0590    0.0000 C   0  0  0  0  0  0  0  0  0  0  0  0
   -2.9096    0.5590    0.0000 C   0  0  0  0  0  0  0  0  0  0  0  0
    2.1977    3.5590    0.0000 C   0  0  0  0  0  0  0  0  0  0  0  0
    2.1977   -0.9410    0.0000 C   0  0  0  0  0  0  0  0  0  0  0  0
   -3.7914   -0.6544    0.0000 C   0  0  0  0  0  0  0  0  0  0  0  0
    3.4967    1.3090    0.0000 C   0  0  0  0  0  0  0  0  0  0  0  0
   -0.9914    3.1992    0.0000 C   0  0  0  0  0  0  0  0  0  0  0  0
    3.6535    5.8008    0.0000 C   0  0  0  0  0  0  0  0  0  0  0  0
    4.8669    3.6990    0.0000 C   0  0  0  0  0  0  0  0  0  0  0  0
    5.1207    6.1128    0.0000 C   0  0  0  0  0  0  0  0  0  0  0  0
    5.8707    4.8137    0.0000 C   0  0  0  0  0  0  0  0  0  0  0  0
   -2.4587    3.5110    0.0000 C   0  0  0  0  0  0  0  0  0  0  0  0
  1  6  1  0  0  0  0
  1  8  1  0  0  0  0
  2 16  2  0  0  0  0
  3 11  1  0  0  0  0
  3 12  1  0  0  0  0
  3 20  1  0  0  0  0
  4 12  2  0  0  0  0
  4 13  1  0  0  0  0
  5 16  1  0  0  0  0
  5 21  1  0  0  0  0
  5 22  1  0  0  0  0
  6 15  2  0  0  0  0
  7 17  2  0  0  0  0
  7 19  1  0  0  0  0
  8 18  2  0  0  0  0
  9 18  1  0  0  0  0
 10 23  1  0  0  0  0
 11 13  2  0  0  0  0
 11 14  1  0  0  0  0
 12 15  1  0  0  0  0
 13 17  1  0  0  0  0
 14 16  1  0  0  0  0
 14 19  2  0  0  0  0
 15 18  1  0  0  0  0
 20 25  1  0  0  0  0
 21 23  1  0  0  0  0
 22 24  1  0  0  0  0
 23 24  1  0  0  0  0
M  END
> <Value>
7.100015437450609

> <Relation>
=

> <SourceURI>
mol:CHEMBL1870106

$$$$

Generated by Molecular Materials Informatics

 18 20  0  0  0  0  0  0  0  0999 V2000
   -1.6150    3.9347    0.0000 I   0  0  0  0  0  0  0  0  0  0  0  0
   -3.0056   -5.6254    0.0000 O   0  0  0  0  0  0  0  0  0  0  0  0
   -1.1514    0.0810    0.0000 N   0  0  0  0  0  0  0  0  0  0  0  0
   -2.0330    1.2945    0.0000 N   0  0  0  0  0  0  0  0  0  0  0  0
    1.5742   -0.2055    0.0000 N   0  0  0  0  0  0  0  0  0  0  0  0
    2.8732    2.0445    0.0000 N   0  0  0  0  0  0  0  0  0  0  0  0
    1.5742    4.2945    0.0000 N   0  0  0  0  0  0  0  0  0  0  0  0
    0.2752    0.5445    0.0000 C   0  0  0  0  0  0  0  0  0  0  0  0
    0.2752    2.0445    0.0000 C   0  0  0  0  0  0  0  0  0  0  0  0
   -1.1514    2.5079    0.0000 C   0  0  0  0  0  0  0  0  0  0  0  0
   -1.6150   -1.3457    0.0000 C   0  0  0  0  0  0  0  0  0  0  0  0
    1.5742    2.7945    0.0000 C   0  0  0  0  0  0  0  0  0  0  0  0
    2.8732    0.5445    0.0000 C   0  0  0  0  0  0  0  0  0  0  0  0
   -0.6112   -2.4605    0.0000 C   0  0  0  0  0  0  0  0  0  0  0  0
   -3.0821   -1.6575    0.0000 C   0  0  0  0  0  0  0  0  0  0  0  0
   -1.0748   -3.8870    0.0000 C   0  0  0  0  0  0  0  0  0  0  0  0
   -3.5458   -3.0841    0.0000 C   0  0  0  0  0  0  0  0  0  0  0  0
   -2.5419   -4.1988    0.0000 C   0  0  0  0  0  0  0  0  0  0  0  0
  1 10  1  0  0  0  0
  2 18  1  0  0  0  0
  3  4  1  0  0  0  0
  3  8  1  0  0  0  0
  3 11  1  0  0  0  0
  4 10  2  0  0  0  0
  5  8  1  0  0  0  0
  5 13  2  0  0  0  0
  6 12  2  0  0  0  0
  6 13  1  0  0  0  0
  7 12  1  0  0  0  0
  8  9  2  0  0  0  0
  9 10  1  0  0  0  0
  9 12  1  0  0  0  0
 11 14  1  0  0  0  0
 11 15  1  0  0  0  0
 14 16  1  0  0  0  0
 15 17  1  0  0  0  0
 16 18  1  0  0  0  0
 17 18  1  0  0  0  0
M  END
> <Value>
5.899998417198648

> <Relation>
<

> <SourceURI>
mol:CHEMBL1996791

$$$$

Generated by Molecular Materials Informatics

 29 32  0  0  0  0  0  0  0  0999 V2000
    9.1064   -8.3735    0.0000 C   0  0  0  0  0  0  0  0  0  0  0  0
    9.1040   -9.8781    0.0000 C   0  0  0  0  0  0  0  0  0  0  0  0
   10.4005  -10.6288    0.0000 C   0  0  0  0  0  0  0  0  0  0  0  0
   11.7083   -9.8773    0.0000 C   0  0  0  0  0  0  0  0  0  0  0  0
   11.7025   -8.3660    0.0000 C   0  0  0  0  0  0  0  0  0  0  0  0
   10.3968   -7.6227    0.0000 C   0  0  0  0  0  0  0  0  0  0  0  0
   10.3897   -6.1227    0.0000 N   0  0  0  0  0  0  0  0  0  0  0  0
   11.6852   -5.3666    0.0000 C   0  0  0  0  0  0  0  0  0  0  0  0
   11.6783   -3.8666    0.0000 O   0  0  0  0  0  0  0  0  0  0  0  0
   12.9880   -6.1105    0.0000 N   0  0  0  0  0  0  0  0  0  0  0  0
   14.2833   -5.3545    0.0000 C   0  0  0  0  0  0  0  0  0  0  0  0
   15.5808   -6.1003    0.0000 C   0  0  0  0  0  0  0  0  0  0  0  0
   16.8756   -5.3456    0.0000 C   0  0  0  0  0  0  0  0  0  0  0  0
   16.8692   -3.8439    0.0000 C   0  0  0  0  0  0  0  0  0  0  0  0
   15.5575   -3.1002    0.0000 C   0  0  0  0  0  0  0  0  0  0  0  0
   14.2682   -3.8591    0.0000 C   0  0  0  0  0  0  0  0  0  0  0  0
   18.1778   -6.0901    0.0000 C   0  0  0  0  0  0  0  0  0  0  0  0
   10.3979  -12.1225    0.0000 C   0  0  0  0  0  0  0  0  0  0  0  0
   11.6089  -14.2262    0.0000 S   0  0  0  0  0  0  0  0  0  0  0  0
   11.7674  -12.7345    0.0000 C   0  0  0  0  0  0  0  0  0  0  0  0
   13.0676  -11.9861    0.0000 C   0  0  0  0  0  0  0  0  0  0  0  0
   10.1410  -14.5362    0.0000 C   0  0  0  0  0  0  0  0  0  0  0  0
    9.4015  -13.2396    0.0000 C   0  0  0  0  0  0  0  0  0  0  0  0
    7.9124  -13.2336    0.0000 C   0  0  0  0  0  0  0  0  0  0  0  0
    7.1609  -14.5228    0.0000 N   0  0  0  0  0  0  0  0  0  0  0  0
    7.9095  -15.8206    0.0000 C   0  0  0  0  0  0  0  0  0  0  0  0
    9.3964  -15.8203    0.0000 N   0  0  0  0  0  0  0  0  0  0  0  0
    7.1674  -11.9316    0.0000 N   0  0  0  0  0  0  0  0  0  0  0  0
   15.5452   -1.6002    0.0000 C   0  0  0  0  0  0  0  0  0  0  0  0
  6  7  1  0  0  0  0
 14 15  1  0  0  0  0
  3  4  2  0  0  0  0
 15 16  2  0  0  0  0
 16 11  1  0  0  0  0
  7  8  1  0  0  0  0
 13 17  1  0  0  0  0
 18 23  1  0  0  0  0
  8  9  2  0  0  0  0
  4  5  1  0  0  0  0
 22 19  1  0  0  0  0
 19 20  1  0  0  0  0
 20 18  2  0  0  0  0
  3 18  1  0  0  0  0
  8 10  1  0  0  0  0
 20 21  1  0  0  0  0
  2  3  1  0  0  0  0
 10 11  1  0  0  0  0
 22 23  1  0  0  0  0
  5  6  2  0  0  0  0
 23 24  2  0  0  0  0
 11 12  2  0  0  0  0
 24 25  1  0  0  0  0
  6  1  1  0  0  0  0
 25 26  2  0  0  0  0
 12 13  1  0  0  0  0
 26 27  1  0  0  0  0
 27 22  2  0  0  0  0
  1  2  2  0  0  0  0
 24 28  1  0  0  0  0
 13 14  2  0  0  0  0
 15 29  1  0  0  0  0
M  END
> <Value>
6.0

> <Relation>
=

> <SourceURI>
mol:CHEMBL371206

$$$$

Generated by Molecular Materials Informatics

 21 23  0  0  0  0  0  0  0  0999 V2000
    1.0373    1.9474    0.0000 C   0  0  0  0  0  0  0  0  0  0  0  0
    2.3362    2.6974    0.0000 N   0  0  0  0  0  0  0  0  0  0  0  0
    3.6353    1.9474    0.0000 C   0  0  0  0  0  0  0  0  0  0  0  0
    3.6353    0.4474    0.0000 N   0  0  0  0  0  0  0  0  0  0  0  0
    2.3362   -0.3026    0.0000 C   0  0  0  0  0  0  0  0  0  0  0  0
    1.0373    0.4474    0.0000 C   0  0  0  0  0  0  0  0  0  0  0  0
   -0.3895   -0.0162    0.0000 C   0  0  0  0  0  0  0  0  0  0  0  0
   -1.2711    1.1974    0.0000 N   0  0  0  0  0  0  0  0  0  0  0  0
   -0.3895    2.4108    0.0000 N   0  0  0  0  0  0  0  0  0  0  0  0
   -0.8529   -1.4428    0.0000 C   0  0  0  0  0  0  0  0  0  0  0  0
    0.1507   -2.5575    0.0000 C   0  0  0  0  0  0  0  0  0  0  0  0
   -0.3127   -3.9841    0.0000 C   0  0  0  0  0  0  0  0  0  0  0  0
   -1.7800   -4.2959    0.0000 C   0  0  0  0  0  0  0  0  0  0  0  0
   -2.7837   -3.1812    0.0000 C   0  0  0  0  0  0  0  0  0  0  0  0
   -2.3202   -1.7546    0.0000 C   0  0  0  0  0  0  0  0  0  0  0  0
   -0.8529    3.8374    0.0000 C   0  0  0  0  0  0  0  0  0  0  0  0
   -1.3164    5.2641    0.0000 C   0  0  0  0  0  0  0  0  0  0  0  0
   -2.2795    3.3739    0.0000 C   0  0  0  0  0  0  0  0  0  0  0  0
    0.5736    4.3010    0.0000 C   0  0  0  0  0  0  0  0  0  0  0  0
    2.3362   -1.8026    0.0000 N   0  0  0  0  0  0  0  0  0  0  0  0
   -2.2435   -5.7226    0.0000 Cl  0  0  0  0  0  0  0  0  0  0  0  0
  1  2  1  0  0  0  0
  1  6  2  0  0  0  0
  1  9  1  0  0  0  0
  3  2  2  0  0  0  0
  3  4  1  0  0  0  0
  5  4  2  0  0  0  0
  5  6  1  0  0  0  0
  5 20  1  0  0  0  0
  6  7  1  0  0  0  0
  7  8  2  0  0  0  0
 10  7  1  0  0  0  0
  9  8  1  0  0  0  0
 16  9  1  0  0  0  0
 10 11  1  0  0  0  0
 10 15  2  0  0  0  0
 11 12  2  0  0  0  0
 12 13  1  0  0  0  0
 13 14  2  0  0  0  0
 13 21  1  0  0  0  0
 14 15  1  0  0  0  0
 16 17  1  0  0  0  0
 16 18  1  0  0  0  0
 16 19  1  0  0  0  0
M  END
> <Value>
5.40000018605658

> <Relation>
=

> <SourceURI>
mol:CHEMBL406845

$$$$

Generated by Molecular Materials Informatics

 22 25  0  0  0  0  0  0  0  0999 V2000
   -1.8317   -2.0706    0.0000 N   0  0  0  0  0  0  0  0  0  0  0  0
    0.4767   -2.8206    0.0000 N   0  0  0  0  0  0  0  0  0  0  0  0
   -0.8232    1.0330    0.0000 N   0  0  0  0  0  0  0  0  0  0  0  0
    0.0585    2.2465    0.0000 N   0  0  0  0  0  0  0  0  0  0  0  0
    0.0585   -0.1806    0.0000 C   0  0  0  0  0  0  0  0  0  0  0  0
   -0.4050   -1.6071    0.0000 C   0  0  0  0  0  0  0  0  0  0  0  0
   -1.8317   -3.5706    0.0000 C   0  0  0  0  0  0  0  0  0  0  0  0
    1.4850    0.2830    0.0000 C   0  0  0  0  0  0  0  0  0  0  0  0
   -0.4050   -4.0342    0.0000 C   0  0  0  0  0  0  0  0  0  0  0  0
    1.4850    1.7830    0.0000 C   0  0  0  0  0  0  0  0  0  0  0  0
   -2.6344   -6.0415    0.0000 C   0  0  0  0  0  0  0  0  0  0  0  0
   -2.9464   -4.5744    0.0000 C   0  0  0  0  0  0  0  0  0  0  0  0
   -0.0932   -5.5015    0.0000 C   0  0  0  0  0  0  0  0  0  0  0  0
   -3.7492   -7.0453    0.0000 C   0  0  0  0  0  0  0  0  0  0  0  0
    2.7841   -0.4670    0.0000 C   0  0  0  0  0  0  0  0  0  0  0  0
   -1.2079   -6.5051    0.0000 C   0  0  0  0  0  0  0  0  0  0  0  0
    2.7841    2.5330    0.0000 C   0  0  0  0  0  0  0  0  0  0  0  0
    4.0832    0.2830    0.0000 C   0  0  0  0  0  0  0  0  0  0  0  0
    4.0832    1.7830    0.0000 C   0  0  0  0  0  0  0  0  0  0  0  0
   -4.8639   -8.0490    0.0000 C   0  0  0  0  0  0  0  0  0  0  0  0
   -4.7530   -5.9306    0.0000 C   0  0  0  0  0  0  0  0  0  0  0  0
   -2.7455   -8.1600    0.0000 C   0  0  0  0  0  0  0  0  0  0  0  0
  1  6  1  0  0  0  0
  1  7  1  0  0  0  0
  2  6  2  0  0  0  0
  2  9  1  0  0  0  0
  3  4  1  0  0  0  0
  3  5  2  0  0  0  0
  4 10  1  0  0  0  0
  5  6  1  0  0  0  0
  5  8  1  0  0  0  0
  7  9  1  0  0  0  0
  7 12  2  0  0  0  0
  8 10  1  0  0  0  0
  8 15  2  0  0  0  0
  9 13  2  0  0  0  0
 10 17  2  0  0  0  0
 11 12  1  0  0  0  0
 11 14  1  0  0  0  0
 11 16  2  0  0  0  0
 13 16  1  0  0  0  0
 14 20  1  0  0  0  0
 14 21  1  0  0  0  0
 14 22  1  0  0  0  0
 15 18  1  0  0  0  0
 17 19  1  0  0  0  0
 18 19  2  0  0  0  0
M  END
> <Value>
6.0

> <Relation>
<

> <SourceURI>
mol:CHEMBL1970104

$$$$

Generated by Molecular Materials Informatics

 15 17  0  0  0  0  0  0  0  0999 V2000
    5.0316   -2.3466    0.0000 C   0  0  0  0  0  0  0  0  0  0  0  0
    5.0294   -3.8497    0.0000 C   0  0  0  0  0  0  0  0  0  0  0  0
    6.3283   -4.5999    0.0000 N   0  0  0  0  0  0  0  0  0  0  0  0
    6.3251   -1.5966    0.0000 C   0  0  0  0  0  0  0  0  0  0  0  0
    7.6247   -2.3399    0.0000 C   0  0  0  0  0  0  0  0  0  0  0  0
    7.6252   -3.8499    0.0000 C   0  0  0  0  0  0  0  0  0  0  0  0
    9.0615   -4.3161    0.0000 N   0  0  0  0  0  0  0  0  0  0  0  0
    9.9487   -3.0943    0.0000 C   0  0  0  0  0  0  0  0  0  0  0  0
    9.0606   -1.8729    0.0000 C   0  0  0  0  0  0  0  0  0  0  0  0
    6.3205   -0.0976    0.0000 C   0  0  0  0  0  0  0  0  0  0  0  0
    7.6142    0.6495    0.0000 C   0  0  0  0  0  0  0  0  0  0  0  0
    7.6103    2.1470    0.0000 C   0  0  0  0  0  0  0  0  0  0  0  0
    6.3091    2.8941    0.0000 C   0  0  0  0  0  0  0  0  0  0  0  0
    5.0089    2.1327    0.0000 C   0  0  0  0  0  0  0  0  0  0  0  0
    5.0190    0.6377    0.0000 C   0  0  0  0  0  0  0  0  0  0  0  0
  5  4  2  0  0  0  0
  6  7  1  0  0  0  0
  7  8  1  0  0  0  0
  8  9  2  0  0  0  0
  9  5  1  0  0  0  0
  4  1  1  0  0  0  0
  4 10  1  0  0  0  0
  5  6  1  0  0  0  0
 10 11  2  0  0  0  0
 11 12  1  0  0  0  0
  2  3  1  0  0  0  0
 12 13  2  0  0  0  0
  3  6  2  0  0  0  0
 13 14  1  0  0  0  0
  1  2  2  0  0  0  0
 14 15  2  0  0  0  0
 15 10  1  0  0  0  0
M  END
> <Value>
5.0

> <Relation>
=

> <SourceURI>
mol:CHEMBL482538

$$$$

Generated by Molecular Materials Informatics

 18 20  0  0  0  0  0  0  0  0999 V2000
    7.4765    4.2896    0.0000 O   0  0  0  0  0  0  0  0  0  0  0  0
    0.9812   -0.9604    0.0000 N   0  0  0  0  0  0  0  0  0  0  0  0
    2.2803   -0.2104    0.0000 N   0  0  0  0  0  0  0  0  0  0  0  0
   -0.4453   -2.9240    0.0000 N   0  0  0  0  0  0  0  0  0  0  0  0
    3.5794   -0.9604    0.0000 C   0  0  0  0  0  0  0  0  0  0  0  0
    0.9812   -2.4604    0.0000 C   0  0  0  0  0  0  0  0  0  0  0  0
    4.8785   -0.2104    0.0000 C   0  0  0  0  0  0  0  0  0  0  0  0
    3.5794   -2.4604    0.0000 C   0  0  0  0  0  0  0  0  0  0  0  0
    2.2803   -3.2104    0.0000 C   0  0  0  0  0  0  0  0  0  0  0  0
   -0.4453   -0.4969    0.0000 C   0  0  0  0  0  0  0  0  0  0  0  0
    4.8785    1.2896    0.0000 C   0  0  0  0  0  0  0  0  0  0  0  0
    6.1774    2.0396    0.0000 C   0  0  0  0  0  0  0  0  0  0  0  0
    6.1774   -0.9604    0.0000 C   0  0  0  0  0  0  0  0  0  0  0  0
   -1.3270   -1.7104    0.0000 C   0  0  0  0  0  0  0  0  0  0  0  0
    7.4765    1.2896    0.0000 C   0  0  0  0  0  0  0  0  0  0  0  0
    7.4765   -0.2104    0.0000 C   0  0  0  0  0  0  0  0  0  0  0  0
    6.1774    3.5396    0.0000 C   0  0  0  0  0  0  0  0  0  0  0  0
    4.8785    4.2896    0.0000 C   0  0  0  0  0  0  0  0  0  0  0  0
  1 17  2  0  0  0  0
  2  3  1  0  0  0  0
  2  6  1  0  0  0  0
  2 10  1  0  0  0  0
  3  5  2  0  0  0  0
  4  6  2  0  0  0  0
  4 14  1  0  0  0  0
  5  7  1  0  0  0  0
  5  8  1  0  0  0  0
  6  9  1  0  0  0  0
  7 11  2  0  0  0  0
  7 13  1  0  0  0  0
  8  9  2  0  0  0  0
 10 14  2  0  0  0  0
 11 12  1  0  0  0  0
 12 15  2  0  0  0  0
 12 17  1  0  0  0  0
 13 16  2  0  0  0  0
 15 16  1  0  0  0  0
 17 18  1  0  0  0  0
M  END
> <Value>
4.100000018985305

> <Relation>
=

> <SourceURI>
mol:CHEMBL1994159

$$$$

Generated by Molecular Materials Informatics

 23 25  0  0  0  0  0  0  0  0999 V2000
    2.7404   -0.9298    0.0000 S   0  0  0  0  0  0  0  0  0  0  0  0
   -0.1047   -3.5700    0.0000 O   0  0  0  0  0  0  0  0  0  0  0  0
    3.7019   -8.7376    0.0000 O   0  0  0  0  0  0  0  0  0  0  0  0
    0.7182   -9.0512    0.0000 O   0  0  0  0  0  0  0  0  0  0  0  0
    0.3135   -0.9298    0.0000 N   0  0  0  0  0  0  0  0  0  0  0  0
    1.5270    1.4519    0.0000 N   0  0  0  0  0  0  0  0  0  0  0  0
    2.2770   -2.3565    0.0000 C   0  0  0  0  0  0  0  0  0  0  0  0
    0.7770   -2.3565    0.0000 C   0  0  0  0  0  0  0  0  0  0  0  0
    1.5270   -0.0481    0.0000 C   0  0  0  0  0  0  0  0  0  0  0  0
    2.5486   -4.9403    0.0000 C   0  0  0  0  0  0  0  0  0  0  0  0
    3.1586   -3.5700    0.0000 C   0  0  0  0  0  0  0  0  0  0  0  0
    2.8201   -7.5241    0.0000 C   0  0  0  0  0  0  0  0  0  0  0  0
    3.4302   -6.1538    0.0000 C   0  0  0  0  0  0  0  0  0  0  0  0
    1.3284   -7.6809    0.0000 C   0  0  0  0  0  0  0  0  0  0  0  0
    1.0568   -5.0971    0.0000 C   0  0  0  0  0  0  0  0  0  0  0  0
    2.8261    2.2019    0.0000 C   0  0  0  0  0  0  0  0  0  0  0  0
    0.4466   -6.4674    0.0000 C   0  0  0  0  0  0  0  0  0  0  0  0
    2.8261    3.7019    0.0000 C   0  0  0  0  0  0  0  0  0  0  0  0
    4.1250    1.4519    0.0000 C   0  0  0  0  0  0  0  0  0  0  0  0
    4.1250    4.4519    0.0000 C   0  0  0  0  0  0  0  0  0  0  0  0
    5.4241    2.2019    0.0000 C   0  0  0  0  0  0  0  0  0  0  0  0
    5.4241    3.7019    0.0000 C   0  0  0  0  0  0  0  0  0  0  0  0
    3.0917  -10.1080    0.0000 C   0  0  0  0  0  0  0  0  0  0  0  0
  1  7  1  0  0  0  0
  1  9  1  0  0  0  0
  2  8  2  0  0  0  0
  3 12  1  0  0  0  0
  3 23  1  0  0  0  0
  4 14  1  0  0  0  0
  5  8  1  0  0  0  0
  5  9  1  0  0  0  0
  6  9  2  0  0  0  0
  6 16  1  0  0  0  0
  7  8  1  0  0  0  0
  7 11  2  0  0  0  0
 11 10  1  0  0  0  0
 10 13  1  0  0  0  0
 10 15  2  0  0  0  0
 12 13  2  0  0  0  0
 12 14  1  0  0  0  0
 14 17  2  0  0  0  0
 15 17  1  0  0  0  0
 16 18  2  0  0  0  0
 16 19  1  0  0  0  0
 18 20  1  0  0  0  0
 19 21  2  0  0  0  0
 20 22  2  0  0  0  0
 21 22  1  0  0  0  0
M  END
> <Value>
7.79997073344623

> <Relation>
=

> <SourceURI>
mol:CHEMBL1970522

$$$$

Generated by Molecular Materials Informatics

 29 32  0  0  0  0  0  0  0  0999 V2000
   18.1845  -14.7718    0.0000 C   0  0  0  0  0  0  0  0  0  0  0  0
   19.4870  -14.0205    0.0000 N   0  0  0  0  0  0  0  0  0  0  0  0
   19.4817  -12.5107    0.0000 C   0  0  0  0  0  0  0  0  0  0  0  0
   18.1812  -11.7668    0.0000 C   0  0  0  0  0  0  0  0  0  0  0  0
   16.8849  -14.0214    0.0000 C   0  0  0  0  0  0  0  0  0  0  0  0
   16.8789  -12.5145    0.0000 C   0  0  0  0  0  0  0  0  0  0  0  0
   15.4438  -12.0546    0.0000 C   0  0  0  0  0  0  0  0  0  0  0  0
   14.5628  -13.2772    0.0000 N   0  0  0  0  0  0  0  0  0  0  0  0
   15.4538  -14.4926    0.0000 N   0  0  0  0  0  0  0  0  0  0  0  0
   14.9745  -10.6299    0.0000 N   0  0  0  0  0  0  0  0  0  0  0  0
   18.1763  -10.2750    0.0000 C   0  0  0  0  0  0  0  0  0  0  0  0
   19.4777   -9.5251    0.0000 C   0  0  0  0  0  0  0  0  0  0  0  0
   19.4772   -8.0267    0.0000 C   0  0  0  0  0  0  0  0  0  0  0  0
   18.1767   -7.2764    0.0000 C   0  0  0  0  0  0  0  0  0  0  0  0
   16.8740   -8.0353    0.0000 C   0  0  0  0  0  0  0  0  0  0  0  0
   16.8811   -9.5313    0.0000 C   0  0  0  0  0  0  0  0  0  0  0  0
   18.1734   -5.7765    0.0000 N   0  0  0  0  0  0  0  0  0  0  0  0
   19.4708   -5.0239    0.0000 C   0  0  0  0  0  0  0  0  0  0  0  0
   19.4675   -3.5241    0.0000 O   0  0  0  0  0  0  0  0  0  0  0  0
   20.7711   -5.7709    0.0000 N   0  0  0  0  0  0  0  0  0  0  0  0
   22.0685   -5.0183    0.0000 C   0  0  0  0  0  0  0  0  0  0  0  0
   23.3692   -5.7685    0.0000 C   0  0  0  0  0  0  0  0  0  0  0  0
   24.6656   -5.0172    0.0000 C   0  0  0  0  0  0  0  0  0  0  0  0
   24.6633   -3.5157    0.0000 C   0  0  0  0  0  0  0  0  0  0  0  0
   23.3535   -2.7690    0.0000 C   0  0  0  0  0  0  0  0  0  0  0  0
   22.0627   -3.5246    0.0000 C   0  0  0  0  0  0  0  0  0  0  0  0
   20.7598   -2.7813    0.0000 F   0  0  0  0  0  0  0  0  0  0  0  0
   25.9657   -5.7649    0.0000 C   0  0  0  0  0  0  0  0  0  0  0  0
   14.9960  -15.9209    0.0000 C   0  0  0  0  0  0  0  0  0  0  0  0
 14 15  1  0  0  0  0
  3  4  2  0  0  0  0
 15 16  2  0  0  0  0
 16 11  1  0  0  0  0
  4 11  1  0  0  0  0
  6  7  1  0  0  0  0
 14 17  1  0  0  0  0
  7  8  2  0  0  0  0
 17 18  1  0  0  0  0
  8  9  1  0  0  0  0
 18 19  2  0  0  0  0
  9  5  1  0  0  0  0
 18 20  1  0  0  0  0
  4  6  1  0  0  0  0
 20 21  1  0  0  0  0
  7 10  1  0  0  0  0
 21 22  2  0  0  0  0
  5  6  2  0  0  0  0
 22 23  1  0  0  0  0
  1  2  2  0  0  0  0
 23 24  2  0  0  0  0
 11 12  2  0  0  0  0
 24 25  1  0  0  0  0
  5  1  1  0  0  0  0
 25 26  2  0  0  0  0
 26 21  1  0  0  0  0
 12 13  1  0  0  0  0
 26 27  1  0  0  0  0
  2  3  1  0  0  0  0
 23 28  1  0  0  0  0
 13 14  2  0  0  0  0
  9 29  1  0  0  0  0
M  END
> <Value>
5.899998417198648

> <Relation>
<

> <SourceURI>
mol:CHEMBL402846

$$$$

Generated by Molecular Materials Informatics

 26 28  0  0  0  0  0  0  0  0999 V2000
    8.2162    3.1123    0.0000 Cl  0  0  0  0  0  0  0  0  0  0  0  0
    3.0202   -4.3875    0.0000 O   0  0  0  0  0  0  0  0  0  0  0  0
    4.3192   -3.6375    0.0000 O   0  0  0  0  0  0  0  0  0  0  0  0
    1.7211   -2.1375    0.0000 N   0  0  0  0  0  0  0  0  0  0  0  0
   -6.0728   -8.1373    0.0000 N   0  0  0  0  0  0  0  0  0  0  0  0
    0.4223   -4.3875    0.0000 C   0  0  0  0  0  0  0  0  0  0  0  0
   -2.1758   -5.8874    0.0000 C   0  0  0  0  0  0  0  0  0  0  0  0
    1.7211   -3.6375    0.0000 C   0  0  0  0  0  0  0  0  0  0  0  0
   -3.4747   -6.6374    0.0000 C   0  0  0  0  0  0  0  0  0  0  0  0
    0.4223   -5.8874    0.0000 C   0  0  0  0  0  0  0  0  0  0  0  0
   -0.8768   -3.6375    0.0000 C   0  0  0  0  0  0  0  0  0  0  0  0
   -0.8768   -6.6374    0.0000 C   0  0  0  0  0  0  0  0  0  0  0  0
   -2.1758   -4.3875    0.0000 C   0  0  0  0  0  0  0  0  0  0  0  0
    3.0202   -1.3875    0.0000 C   0  0  0  0  0  0  0  0  0  0  0  0
    4.3192    0.8624    0.0000 C   0  0  0  0  0  0  0  0  0  0  0  0
    3.0202    0.1124    0.0000 C   0  0  0  0  0  0  0  0  0  0  0  0
   -4.7738   -5.8874    0.0000 C   0  0  0  0  0  0  0  0  0  0  0  0
   -3.4747   -8.1373    0.0000 C   0  0  0  0  0  0  0  0  0  0  0  0
    4.3192    2.3623    0.0000 C   0  0  0  0  0  0  0  0  0  0  0  0
    5.6183    0.1124    0.0000 C   0  0  0  0  0  0  0  0  0  0  0  0
    4.3192   -2.1375    0.0000 C   0  0  0  0  0  0  0  0  0  0  0  0
    6.9172    2.3623    0.0000 C   0  0  0  0  0  0  0  0  0  0  0  0
   -6.0728   -6.6374    0.0000 C   0  0  0  0  0  0  0  0  0  0  0  0
   -4.7738   -8.8873    0.0000 C   0  0  0  0  0  0  0  0  0  0  0  0
    5.6183    3.1123    0.0000 C   0  0  0  0  0  0  0  0  0  0  0  0
    6.9172    0.8624    0.0000 C   0  0  0  0  0  0  0  0  0  0  0  0
  1 22  1  0  0  0  0
  2  8  2  0  0  0  0
  3 21  1  0  0  0  0
  4  8  1  0  0  0  0
  4 14  1  0  0  0  0
  5 23  2  0  0  0  0
  5 24  1  0  0  0  0
  6  8  1  0  0  0  0
  6 10  2  0  0  0  0
  6 11  1  0  0  0  0
  7  9  1  0  0  0  0
  7 12  2  0  0  0  0
  7 13  1  0  0  0  0
  9 17  2  0  0  0  0
  9 18  1  0  0  0  0
 10 12  1  0  0  0  0
 11 13  2  0  0  0  0
 14 16  1  0  0  0  0
 14 21  1  0  0  0  0
 15 16  1  0  0  0  0
 15 19  2  0  0  0  0
 15 20  1  0  0  0  0
 17 23  1  0  0  0  0
 18 24  2  0  0  0  0
 19 25  1  0  0  0  0
 20 26  2  0  0  0  0
 22 25  2  0  0  0  0
 22 26  1  0  0  0  0
M  END
> <Value>
5.899998417198648

> <Relation>
<

> <SourceURI>
mol:CHEMBL1996931

$$$$

Generated by Molecular Materials Informatics

 38 41  0  0  0  0  0  0  0  0999 V2000
    0.7544   -5.2399    0.0000 O   0  0  0  0  0  0  0  0  0  0  0  0
   -7.8054   -0.2722    0.0000 O   0  0  0  0  0  0  0  0  0  0  0  0
  -10.1675    4.5930    0.0000 O   0  0  0  0  0  0  0  0  0  0  0  0
   -3.2138   -3.1297    0.0000 N   0  0  0  0  0  0  0  0  0  0  0  0
   -4.2175   -4.2444    0.0000 N   0  0  0  0  0  0  0  0  0  0  0  0
   -0.5445   -2.9899    0.0000 N   0  0  0  0  0  0  0  0  0  0  0  0
    2.0535   -2.9899    0.0000 N   0  0  0  0  0  0  0  0  0  0  0  0
   -7.0025    2.1988    0.0000 N   0  0  0  0  0  0  0  0  0  0  0  0
   -1.8435   -3.7399    0.0000 C   0  0  0  0  0  0  0  0  0  0  0  0
   -3.4675   -5.5435    0.0000 C   0  0  0  0  0  0  0  0  0  0  0  0
   -3.5257   -1.6627    0.0000 C   0  0  0  0  0  0  0  0  0  0  0  0
   -2.0002   -5.2317    0.0000 C   0  0  0  0  0  0  0  0  0  0  0  0
   -4.0776   -6.9138    0.0000 C   0  0  0  0  0  0  0  0  0  0  0  0
   -4.9522   -1.1991    0.0000 C   0  0  0  0  0  0  0  0  0  0  0  0
   -5.2641    0.2680    0.0000 C   0  0  0  0  0  0  0  0  0  0  0  0
   -2.4110   -0.6589    0.0000 C   0  0  0  0  0  0  0  0  0  0  0  0
    0.7544   -3.7399    0.0000 C   0  0  0  0  0  0  0  0  0  0  0  0
    2.0535   -1.4900    0.0000 C   0  0  0  0  0  0  0  0  0  0  0  0
    3.3525   -0.7400    0.0000 C   0  0  0  0  0  0  0  0  0  0  0  0
   -6.6907    0.7316    0.0000 C   0  0  0  0  0  0  0  0  0  0  0  0
    3.3525    0.7600    0.0000 C   0  0  0  0  0  0  0  0  0  0  0  0
   -4.1495    1.2718    0.0000 C   0  0  0  0  0  0  0  0  0  0  0  0
   -2.7228    0.8081    0.0000 C   0  0  0  0  0  0  0  0  0  0  0  0
   -4.6876   -8.2842    0.0000 C   0  0  0  0  0  0  0  0  0  0  0  0
   -2.7073   -7.5238    0.0000 C   0  0  0  0  0  0  0  0  0  0  0  0
   -5.4480   -6.3037    0.0000 C   0  0  0  0  0  0  0  0  0  0  0  0
    0.7544   -0.7400    0.0000 C   0  0  0  0  0  0  0  0  0  0  0  0
    4.6514   -1.4900    0.0000 C   0  0  0  0  0  0  0  0  0  0  0  0
    2.0535    1.5099    0.0000 C   0  0  0  0  0  0  0  0  0  0  0  0
    4.6514    1.5099    0.0000 C   0  0  0  0  0  0  0  0  0  0  0  0
    0.7544    0.7600    0.0000 C   0  0  0  0  0  0  0  0  0  0  0  0
   -8.4290    2.6623    0.0000 C   0  0  0  0  0  0  0  0  0  0  0  0
    5.9505   -0.7400    0.0000 C   0  0  0  0  0  0  0  0  0  0  0  0
    5.9505    0.7600    0.0000 C   0  0  0  0  0  0  0  0  0  0  0  0
   -9.5437    1.6587    0.0000 C   0  0  0  0  0  0  0  0  0  0  0  0
   -8.7410    4.1295    0.0000 C   0  0  0  0  0  0  0  0  0  0  0  0
  -10.9704    2.1221    0.0000 C   0  0  0  0  0  0  0  0  0  0  0  0
   -9.2319    0.1914    0.0000 C   0  0  0  0  0  0  0  0  0  0  0  0
  1 17  2  0  0  0  0
  2 20  2  0  0  0  0
  3 36  1  0  0  0  0
  4  5  1  0  0  0  0
  4  9  1  0  0  0  0
  4 11  1  0  0  0  0
  5 10  2  0  0  0  0
  6  9  1  0  0  0  0
  6 17  1  0  0  0  0
  7 17  1  0  0  0  0
  7 18  1  0  0  0  0
  8 20  1  0  0  0  0
  8 32  1  0  0  0  0
  9 12  2  0  0  0  0
 10 12  1  0  0  0  0
 10 13  1  0  0  0  0
 11 14  2  0  0  0  0
 11 16  1  0  0  0  0
 13 24  1  0  0  0  0
 13 25  1  0  0  0  0
 13 26  1  0  0  0  0
 14 15  1  0  0  0  0
 15 20  1  0  0  0  0
 15 22  2  0  0  0  0
 16 23  2  0  0  0  0
 18 19  1  0  0  0  0
 18 27  2  0  0  0  0
 19 21  1  0  0  0  0
 19 28  2  0  0  0  0
 21 29  1  0  0  0  0
 21 30  2  0  0  0  0
 22 23  1  0  0  0  0
 27 31  1  0  0  0  0
 28 33  1  0  0  0  0
 29 31  2  0  0  0  0
 30 34  1  0  0  0  0
 32 35  1  0  0  0  0
 32 36  1  0  0  0  0
 33 34  2  0  0  0  0
 35 37  1  0  0  0  0
 35 38  1  0  0  0  0
M  END
> <Value>
5.300000202445418

> <Relation>
<

> <SourceURI>
mol:CHEMBL1971223

$$$$

Generated by Molecular Materials Informatics

 29 32  0  0  0  0  0  0  0  0999 V2000
    3.3982   -1.7787    0.0000 F   0  0  0  0  0  0  0  0  0  0  0  0
    5.0467   -3.1138    0.0000 F   0  0  0  0  0  0  0  0  0  0  0  0
    4.7332   -0.1302    0.0000 F   0  0  0  0  0  0  0  0  0  0  0  0
   10.5185   -4.9491    0.0000 F   0  0  0  0  0  0  0  0  0  0  0  0
   10.8503   -2.8538    0.0000 F   0  0  0  0  0  0  0  0  0  0  0  0
    8.4234   -4.6171    0.0000 F   0  0  0  0  0  0  0  0  0  0  0  0
    4.6183    0.9618    0.0000 N   0  0  0  0  0  0  0  0  0  0  0  0
    3.8683   -0.3373    0.0000 N   0  0  0  0  0  0  0  0  0  0  0  0
    2.4012   -0.0253    0.0000 N   0  0  0  0  0  0  0  0  0  0  0  0
   -3.0793    4.1800    0.0000 N   0  0  0  0  0  0  0  0  0  0  0  0
   -3.9609    2.9664    0.0000 N   0  0  0  0  0  0  0  0  0  0  0  0
    6.3818   -1.4653    0.0000 C   0  0  0  0  0  0  0  0  0  0  0  0
    6.9918   -0.0949    0.0000 C   0  0  0  0  0  0  0  0  0  0  0  0
    4.8900   -1.6220    0.0000 C   0  0  0  0  0  0  0  0  0  0  0  0
    8.7552   -2.5220    0.0000 C   0  0  0  0  0  0  0  0  0  0  0  0
    7.2634   -2.6787    0.0000 C   0  0  0  0  0  0  0  0  0  0  0  0
    2.2443    1.4664    0.0000 C   0  0  0  0  0  0  0  0  0  0  0  0
    9.6369   -3.7354    0.0000 C   0  0  0  0  0  0  0  0  0  0  0  0
    6.1102    1.1186    0.0000 C   0  0  0  0  0  0  0  0  0  0  0  0
    0.9454    2.2164    0.0000 C   0  0  0  0  0  0  0  0  0  0  0  0
    8.4836    0.0618    0.0000 C   0  0  0  0  0  0  0  0  0  0  0  0
    9.3652   -1.1516    0.0000 C   0  0  0  0  0  0  0  0  0  0  0  0
    3.6147    2.0766    0.0000 C   0  0  0  0  0  0  0  0  0  0  0  0
   -1.6528    2.2164    0.0000 C   0  0  0  0  0  0  0  0  0  0  0  0
   -1.6528    3.7164    0.0000 C   0  0  0  0  0  0  0  0  0  0  0  0
   -0.3537    1.4664    0.0000 C   0  0  0  0  0  0  0  0  0  0  0  0
    0.9454    3.7164    0.0000 C   0  0  0  0  0  0  0  0  0  0  0  0
   -0.3537    4.4664    0.0000 C   0  0  0  0  0  0  0  0  0  0  0  0
   -3.0793    1.7529    0.0000 C   0  0  0  0  0  0  0  0  0  0  0  0
  1 14  1  0  0  0  0
  2 14  1  0  0  0  0
  3 14  1  0  0  0  0
  4 18  1  0  0  0  0
  5 18  1  0  0  0  0
  6 18  1  0  0  0  0
  7  8  1  0  0  0  0
  7 19  1  0  0  0  0
  7 23  1  0  0  0  0
  8  9  2  0  0  0  0
  9 17  1  0  0  0  0
 10 11  1  0  0  0  0
 10 25  1  0  0  0  0
 11 29  2  0  0  0  0
 12 13  1  0  0  0  0
 12 14  1  0  0  0  0
 12 16  2  0  0  0  0
 13 19  1  0  0  0  0
 13 21  2  0  0  0  0
 15 16  1  0  0  0  0
 15 18  1  0  0  0  0
 15 22  2  0  0  0  0
 17 20  1  0  0  0  0
 17 23  2  0  0  0  0
 20 26  1  0  0  0  0
 20 27  2  0  0  0  0
 21 22  1  0  0  0  0
 24 25  1  0  0  0  0
 24 26  2  0  0  0  0
 24 29  1  0  0  0  0
 25 28  2  0  0  0  0
 27 28  1  0  0  0  0
M  END
> <Value>
5.899998417198648

> <Relation>
<

> <SourceURI>
mol:CHEMBL1964413

$$$$

Generated by Molecular Materials Informatics

 28 30  0  0  0  0  0  0  0  0999 V2000
    6.2481    3.3264    0.0000 F   0  0  0  0  0  0  0  0  0  0  0  0
    4.1990    3.8754    0.0000 F   0  0  0  0  0  0  0  0  0  0  0  0
    5.6990    1.2773    0.0000 F   0  0  0  0  0  0  0  0  0  0  0  0
   -4.1441  -10.1734    0.0000 F   0  0  0  0  0  0  0  0  0  0  0  0
   -5.6441   -8.6735    0.0000 F   0  0  0  0  0  0  0  0  0  0  0  0
   -2.6441   -8.6735    0.0000 F   0  0  0  0  0  0  0  0  0  0  0  0
   -2.8450   -1.9236    0.0000 O   0  0  0  0  0  0  0  0  0  0  0  0
   -0.2471    2.5764    0.0000 N   0  0  0  0  0  0  0  0  0  0  0  0
   -0.2471   -1.9236    0.0000 N   0  0  0  0  0  0  0  0  0  0  0  0
   -2.8450   -6.4235    0.0000 N   0  0  0  0  0  0  0  0  0  0  0  0
   -1.5462   -4.1735    0.0000 N   0  0  0  0  0  0  0  0  0  0  0  0
    1.0520    0.3264    0.0000 C   0  0  0  0  0  0  0  0  0  0  0  0
    1.0520    1.8264    0.0000 C   0  0  0  0  0  0  0  0  0  0  0  0
   -0.2471   -0.4236    0.0000 C   0  0  0  0  0  0  0  0  0  0  0  0
    3.6499    1.8264    0.0000 C   0  0  0  0  0  0  0  0  0  0  0  0
    2.3509    2.5764    0.0000 C   0  0  0  0  0  0  0  0  0  0  0  0
    4.9490    2.5764    0.0000 C   0  0  0  0  0  0  0  0  0  0  0  0
    2.3509   -0.4236    0.0000 C   0  0  0  0  0  0  0  0  0  0  0  0
    3.6499    0.3264    0.0000 C   0  0  0  0  0  0  0  0  0  0  0  0
   -4.1441   -7.1735    0.0000 C   0  0  0  0  0  0  0  0  0  0  0  0
   -4.1441   -8.6735    0.0000 C   0  0  0  0  0  0  0  0  0  0  0  0
   -1.5462    0.3264    0.0000 C   0  0  0  0  0  0  0  0  0  0  0  0
   -2.8450   -4.9235    0.0000 C   0  0  0  0  0  0  0  0  0  0  0  0
   -1.5462   -2.6736    0.0000 C   0  0  0  0  0  0  0  0  0  0  0  0
   -1.5462    1.8264    0.0000 C   0  0  0  0  0  0  0  0  0  0  0  0
   -5.4432   -6.4235    0.0000 C   0  0  0  0  0  0  0  0  0  0  0  0
   -4.1441   -4.1735    0.0000 C   0  0  0  0  0  0  0  0  0  0  0  0
   -5.4432   -4.9235    0.0000 C   0  0  0  0  0  0  0  0  0  0  0  0
  1 17  1  0  0  0  0
  2 17  1  0  0  0  0
  3 17  1  0  0  0  0
  4 21  1  0  0  0  0
  5 21  1  0  0  0  0
  6 21  1  0  0  0  0
  7 24  2  0  0  0  0
  8 13  1  0  0  0  0
  8 25  2  0  0  0  0
  9 14  1  0  0  0  0
  9 24  1  0  0  0  0
 10 20  2  0  0  0  0
 10 23  1  0  0  0  0
 11 23  1  0  0  0  0
 11 24  1  0  0  0  0
 12 13  1  0  0  0  0
 12 14  1  0  0  0  0
 12 18  2  0  0  0  0
 13 16  2  0  0  0  0
 14 22  2  0  0  0  0
 15 16  1  0  0  0  0
 15 17  1  0  0  0  0
 15 19  2  0  0  0  0
 18 19  1  0  0  0  0
 20 21  1  0  0  0  0
 20 26  1  0  0  0  0
 22 25  1  0  0  0  0
 23 27  2  0  0  0  0
 26 28  2  0  0  0  0
 27 28  1  0  0  0  0
M  END
> <Value>
5.899998417198648

> <Relation>
<

> <SourceURI>
mol:CHEMBL1973483

$$$$

Generated by Molecular Materials Informatics

 22 24  0  0  0  0  0  0  0  0999 V2000
   -5.2941    5.8990    0.0000 Cl  0  0  0  0  0  0  0  0  0  0  0  0
    1.2010    3.6490    0.0000 O   0  0  0  0  0  0  0  0  0  0  0  0
   -3.4461   -0.9092    0.0000 N   0  0  0  0  0  0  0  0  0  0  0  0
   -0.9423   -2.0240    0.0000 N   0  0  0  0  0  0  0  0  0  0  0  0
   -2.6961    5.8990    0.0000 N   0  0  0  0  0  0  0  0  0  0  0  0
   -0.0979    5.8990    0.0000 N   0  0  0  0  0  0  0  0  0  0  0  0
   -2.6961    1.3990    0.0000 C   0  0  0  0  0  0  0  0  0  0  0  0
   -1.4824    0.5173    0.0000 C   0  0  0  0  0  0  0  0  0  0  0  0
   -2.6961    2.8990    0.0000 C   0  0  0  0  0  0  0  0  0  0  0  0
   -1.9461   -0.9092    0.0000 C   0  0  0  0  0  0  0  0  0  0  0  0
   -3.9095    0.5173    0.0000 C   0  0  0  0  0  0  0  0  0  0  0  0
   -1.3970    3.6490    0.0000 C   0  0  0  0  0  0  0  0  0  0  0  0
   -1.3970    5.1490    0.0000 C   0  0  0  0  0  0  0  0  0  0  0  0
   -3.9950    3.6490    0.0000 C   0  0  0  0  0  0  0  0  0  0  0  0
   -0.0154    0.8291    0.0000 C   0  0  0  0  0  0  0  0  0  0  0  0
   -3.9950    5.1490    0.0000 C   0  0  0  0  0  0  0  0  0  0  0  0
    0.9885   -0.2854    0.0000 C   0  0  0  0  0  0  0  0  0  0  0  0
    0.5248   -1.7121    0.0000 C   0  0  0  0  0  0  0  0  0  0  0  0
    1.2010    5.1490    0.0000 C   0  0  0  0  0  0  0  0  0  0  0  0
    2.5001    5.8990    0.0000 C   0  0  0  0  0  0  0  0  0  0  0  0
    3.7992    5.1490    0.0000 C   0  0  0  0  0  0  0  0  0  0  0  0
    5.0983    5.8990    0.0000 C   0  0  0  0  0  0  0  0  0  0  0  0
  1 16  1  0  0  0  0
  2 19  2  0  0  0  0
  3 10  1  0  0  0  0
  3 11  1  0  0  0  0
  4 10  2  0  0  0  0
  4 18  1  0  0  0  0
  5 13  1  0  0  0  0
  5 16  2  0  0  0  0
  6 13  1  0  0  0  0
  6 19  1  0  0  0  0
  7  8  1  0  0  0  0
  7  9  1  0  0  0  0
  7 11  2  0  0  0  0
  8 10  1  0  0  0  0
  8 15  2  0  0  0  0
  9 12  1  0  0  0  0
  9 14  2  0  0  0  0
 12 13  2  0  0  0  0
 14 16  1  0  0  0  0
 15 17  1  0  0  0  0
 17 18  2  0  0  0  0
 19 20  1  0  0  0  0
 20 21  1  0  0  0  0
 21 22  1  0  0  0  0
M  END
> <Value>
6.499996931948306

> <Relation>
=

> <SourceURI>
mol:CHEMBL1998470

$$$$

Generated by Molecular Materials Informatics

 26 30  0  0  0  0  0  0  0  0999 V2000
   -6.0737   -0.7531    0.0000 C   0  0  0  0  0  0  0  0  0  0  0  0
   -6.0759   -2.2572    0.0000 C   0  0  0  0  0  0  0  0  0  0  0  0
   -4.7762   -3.0078    0.0000 C   0  0  0  0  0  0  0  0  0  0  0  0
   -4.7794   -0.0026    0.0000 C   0  0  0  0  0  0  0  0  0  0  0  0
   -3.4789   -0.7464    0.0000 C   0  0  0  0  0  0  0  0  0  0  0  0
   -3.4784   -2.2574    0.0000 C   0  0  0  0  0  0  0  0  0  0  0  0
   -2.0411   -2.7238    0.0000 N   0  0  0  0  0  0  0  0  0  0  0  0
   -2.0420   -0.2792    0.0000 C   0  0  0  0  0  0  0  0  0  0  0  0
   -1.1591   -1.5034    0.0000 C   0  0  0  0  0  0  0  0  0  0  0  0
    0.3392   -1.3497    0.0000 C   0  0  0  0  0  0  0  0  0  0  0  0
    0.9561    0.0274    0.0000 C   0  0  0  0  0  0  0  0  0  0  0  0
   -1.4311    1.0921    0.0000 C   0  0  0  0  0  0  0  0  0  0  0  0
    0.0573    1.2456    0.0000 C   0  0  0  0  0  0  0  0  0  0  0  0
    0.3715    2.7086    0.0000 C   0  0  0  0  0  0  0  0  0  0  0  0
   -0.9229    3.4592    0.0000 N   0  0  0  0  0  0  0  0  0  0  0  0
   -2.0367    2.4602    0.0000 C   0  0  0  0  0  0  0  0  0  0  0  0
    1.7428    3.3159    0.0000 O   0  0  0  0  0  0  0  0  0  0  0  0
   -3.5033    2.7750    0.0000 O   0  0  0  0  0  0  0  0  0  0  0  0
   -7.3729   -0.0034    0.0000 O   0  0  0  0  0  0  0  0  0  0  0  0
    2.4389    0.1891    0.0000 C   0  0  0  0  0  0  0  0  0  0  0  0
    3.3225   -1.0255    0.0000 C   0  0  0  0  0  0  0  0  0  0  0  0
    4.8128   -0.8656    0.0000 C   0  0  0  0  0  0  0  0  0  0  0  0
    5.4206    0.5072    0.0000 C   0  0  0  0  0  0  0  0  0  0  0  0
    4.5277    1.7219    0.0000 C   0  0  0  0  0  0  0  0  0  0  0  0
    3.0407    1.5560    0.0000 C   0  0  0  0  0  0  0  0  0  0  0  0
    2.7147   -2.3965    0.0000 Cl  0  0  0  0  0  0  0  0  0  0  0  0
 12 13  2  0  0  0  0
  2  3  1  0  0  0  0
  3  6  2  0  0  0  0
  6  7  1  0  0  0  0
  7  9  1  0  0  0  0
 13 14  1  0  0  0  0
 14 15  1  0  0  0  0
 15 16  1  0  0  0  0
 16 12  1  0  0  0  0
  8  5  1  0  0  0  0
 14 17  2  0  0  0  0
  1  2  2  0  0  0  0
 16 18  2  0  0  0  0
  5  4  2  0  0  0  0
  1 19  1  0  0  0  0
  8  9  2  0  0  0  0
  4  1  1  0  0  0  0
 20 21  2  0  0  0  0
  9 10  1  0  0  0  0
 21 22  1  0  0  0  0
  5  6  1  0  0  0  0
 22 23  2  0  0  0  0
 10 11  2  0  0  0  0
 23 24  1  0  0  0  0
 11 13  1  0  0  0  0
 24 25  2  0  0  0  0
 25 20  1  0  0  0  0
 11 20  1  0  0  0  0
 12  8  1  0  0  0  0
 21 26  1  0  0  0  0
M  END
> <Value>
6.299997602857746

> <Relation>
=

> <SourceURI>
mol:CHEMBL379975

$$$$

Generated by Molecular Materials Informatics

 33 36  0  0  0  0  0  0  0  0999 V2000
    2.7993    2.6066    0.0000 C   0  0  0  0  0  0  0  0  0  0  0  0
    2.7971    1.1025    0.0000 C   0  0  0  0  0  0  0  0  0  0  0  0
    4.1043    0.3517    0.0000 C   0  0  0  0  0  0  0  0  0  0  0  0
    5.3994    1.1032    0.0000 C   0  0  0  0  0  0  0  0  0  0  0  0
    4.1011    3.3571    0.0000 C   0  0  0  0  0  0  0  0  0  0  0  0
    5.3928    2.6108    0.0000 C   0  0  0  0  0  0  0  0  0  0  0  0
    6.5212    3.6231    0.0000 N   0  0  0  0  0  0  0  0  0  0  0  0
    5.9030    4.9800    0.0000 C   0  0  0  0  0  0  0  0  0  0  0  0
    4.4223    4.8307    0.0000 N   0  0  0  0  0  0  0  0  0  0  0  0
    7.9810    3.2520    0.0000 C   0  0  0  0  0  0  0  0  0  0  0  0
    8.4820    1.8359    0.0000 C   0  0  0  0  0  0  0  0  0  0  0  0
    9.9744    1.8775    0.0000 C   0  0  0  0  0  0  0  0  0  0  0  0
   10.4062    3.3055    0.0000 C   0  0  0  0  0  0  0  0  0  0  0  0
    9.1793    4.1640    0.0000 S   0  0  0  0  0  0  0  0  0  0  0  0
   11.8372    3.8009    0.0000 C   0  0  0  0  0  0  0  0  0  0  0  0
    4.1040   -1.1482    0.0000 O   0  0  0  0  0  0  0  0  0  0  0  0
    2.8047   -1.8978    0.0000 C   0  0  0  0  0  0  0  0  0  0  0  0
    1.4899    0.3383    0.0000 O   0  0  0  0  0  0  0  0  0  0  0  0
    1.4946   -1.1682    0.0000 C   0  0  0  0  0  0  0  0  0  0  0  0
   10.8852    0.6857    0.0000 O   0  0  0  0  0  0  0  0  0  0  0  0
   10.3083   -0.6990    0.0000 C   0  0  0  0  0  0  0  0  0  0  0  0
   11.2198   -1.8822    0.0000 C   0  0  0  0  0  0  0  0  0  0  0  0
   10.6454   -3.2587    0.0000 C   0  0  0  0  0  0  0  0  0  0  0  0
   11.5554   -4.4412    0.0000 C   0  0  0  0  0  0  0  0  0  0  0  0
   13.0375   -4.2441    0.0000 C   0  0  0  0  0  0  0  0  0  0  0  0
   13.6052   -2.8543    0.0000 C   0  0  0  0  0  0  0  0  0  0  0  0
   12.6916   -1.6777    0.0000 C   0  0  0  0  0  0  0  0  0  0  0  0
   13.2566   -0.2882    0.0000 C   0  0  0  0  0  0  0  0  0  0  0  0
   13.9984    1.0157    0.0000 F   0  0  0  0  0  0  0  0  0  0  0  0
   11.9072    0.3667    0.0000 F   0  0  0  0  0  0  0  0  0  0  0  0
   14.6060   -0.9431    0.0000 F   0  0  0  0  0  0  0  0  0  0  0  0
   12.9785    2.8128    0.0000 O   0  0  0  0  0  0  0  0  0  0  0  0
   12.1203    5.2916    0.0000 O   0  0  0  0  0  0  0  0  0  0  0  0
  4  6  1  0  0  0  0
  3 16  1  0  0  0  0
  6  7  1  0  0  0  0
 16 17  1  0  0  0  0
  7  8  1  0  0  0  0
  2 18  1  0  0  0  0
  8  9  2  0  0  0  0
 18 19  1  0  0  0  0
  9  5  1  0  0  0  0
 12 20  1  0  0  0  0
  5  1  1  0  0  0  0
 20 21  1  0  0  0  0
  7 10  1  0  0  0  0
 22 21  1  0  0  0  0
 10 11  2  0  0  0  0
 22 23  2  0  0  0  0
  5  6  2  0  0  0  0
 23 24  1  0  0  0  0
 24 25  2  0  0  0  0
  2  3  1  0  0  0  0
 25 26  1  0  0  0  0
  1  2  2  0  0  0  0
 26 27  2  0  0  0  0
 27 22  1  0  0  0  0
 11 12  1  0  0  0  0
 27 28  1  0  0  0  0
 12 13  2  0  0  0  0
 28 29  1  0  0  0  0
 13 14  1  0  0  0  0
 28 30  1  0  0  0  0
 14 10  1  0  0  0  0
 28 31  1  0  0  0  0
  3  4  2  0  0  0  0
 13 15  1  0  0  0  0
 15 32  1  0  0  0  0
 15 33  2  0  0  0  0
M  END
> <Value>
8.600326278518962

> <Relation>
=

> <SourceURI>
mol:CHEMBL474432

$$$$

Generated by Molecular Materials Informatics

 26 28  0  0  0  0  0  0  0  0999 V2000
   -6.6713   -1.1649    0.0000 S   0  0  0  0  0  0  0  0  0  0  0  0
   -1.4213    2.7322    0.0000 O   0  0  0  0  0  0  0  0  0  0  0  0
   -7.4213   -2.4640    0.0000 O   0  0  0  0  0  0  0  0  0  0  0  0
   -5.3724   -1.9149    0.0000 O   0  0  0  0  0  0  0  0  0  0  0  0
    2.0407   -6.1620    0.0000 O   0  0  0  0  0  0  0  0  0  0  0  0
    0.9603   -1.0794    0.0000 N   0  0  0  0  0  0  0  0  0  0  0  0
    0.9603    1.3476    0.0000 N   0  0  0  0  0  0  0  0  0  0  0  0
   -1.4213    0.1342    0.0000 N   0  0  0  0  0  0  0  0  0  0  0  0
    2.3869   -0.6158    0.0000 C   0  0  0  0  0  0  0  0  0  0  0  0
    0.0787    0.1342    0.0000 C   0  0  0  0  0  0  0  0  0  0  0  0
    2.3869    0.8842    0.0000 C   0  0  0  0  0  0  0  0  0  0  0  0
   -2.1713    1.4331    0.0000 C   0  0  0  0  0  0  0  0  0  0  0  0
   -3.6713    1.4331    0.0000 C   0  0  0  0  0  0  0  0  0  0  0  0
    3.6860   -1.3658    0.0000 C   0  0  0  0  0  0  0  0  0  0  0  0
   -5.9213    0.1342    0.0000 C   0  0  0  0  0  0  0  0  0  0  0  0
    3.6860    1.6342    0.0000 C   0  0  0  0  0  0  0  0  0  0  0  0
    0.4969   -2.5060    0.0000 C   0  0  0  0  0  0  0  0  0  0  0  0
   -4.4213    0.1342    0.0000 C   0  0  0  0  0  0  0  0  0  0  0  0
   -4.4213    2.7322    0.0000 C   0  0  0  0  0  0  0  0  0  0  0  0
    4.9851   -0.6158    0.0000 C   0  0  0  0  0  0  0  0  0  0  0  0
    4.9851    0.8842    0.0000 C   0  0  0  0  0  0  0  0  0  0  0  0
   -6.6713    1.4331    0.0000 C   0  0  0  0  0  0  0  0  0  0  0  0
   -5.9213    2.7322    0.0000 C   0  0  0  0  0  0  0  0  0  0  0  0
    1.5005   -3.6207    0.0000 C   0  0  0  0  0  0  0  0  0  0  0  0
   -7.9704   -0.4149    0.0000 C   0  0  0  0  0  0  0  0  0  0  0  0
    1.0369   -5.0473    0.0000 C   0  0  0  0  0  0  0  0  0  0  0  0
  1  3  2  0  0  0  0
  1  4  2  0  0  0  0
  1 15  1  0  0  0  0
  1 25  1  0  0  0  0
  2 12  2  0  0  0  0
  5 26  1  0  0  0  0
  6  9  1  0  0  0  0
  6 10  1  0  0  0  0
  6 17  1  0  0  0  0
  7 10  2  0  0  0  0
  7 11  1  0  0  0  0
  8 10  1  0  0  0  0
  8 12  1  0  0  0  0
  9 11  1  0  0  0  0
  9 14  2  0  0  0  0
 11 16  2  0  0  0  0
 12 13  1  0  0  0  0
 13 18  2  0  0  0  0
 13 19  1  0  0  0  0
 14 20  1  0  0  0  0
 15 18  1  0  0  0  0
 15 22  2  0  0  0  0
 16 21  1  0  0  0  0
 17 24  1  0  0  0  0
 19 23  2  0  0  0  0
 20 21  2  0  0  0  0
 22 23  1  0  0  0  0
 24 26  1  0  0  0  0
M  END
> <Value>
5.300000202445418

> <Relation>
<

> <SourceURI>
mol:CHEMBL1973016

$$$$

Generated by Molecular Materials Informatics

 36 40  0  0  0  0  0  0  0  0999 V2000
   -1.6646  -13.9485    0.0000 Cl  0  0  0  0  0  0  0  0  0  0  0  0
    2.2324    3.3015    0.0000 O   0  0  0  0  0  0  0  0  0  0  0  0
   -0.3657   -7.1985    0.0000 O   0  0  0  0  0  0  0  0  0  0  0  0
   -0.4932    1.5150    0.0000 N   0  0  0  0  0  0  0  0  0  0  0  0
   -1.3748    0.3015    0.0000 N   0  0  0  0  0  0  0  0  0  0  0  0
   -0.9566   -2.3387    0.0000 N   0  0  0  0  0  0  0  0  0  0  0  0
    2.2324   -7.1985    0.0000 N   0  0  0  0  0  0  0  0  0  0  0  0
    0.9334   -9.4485    0.0000 N   0  0  0  0  0  0  0  0  0  0  0  0
   -0.3657    7.8015    0.0000 N   0  0  0  0  0  0  0  0  0  0  0  0
    0.9334   -0.4485    0.0000 C   0  0  0  0  0  0  0  0  0  0  0  0
    0.9334    1.0515    0.0000 C   0  0  0  0  0  0  0  0  0  0  0  0
    2.2324   -1.1985    0.0000 C   0  0  0  0  0  0  0  0  0  0  0  0
   -0.4932   -0.9121    0.0000 C   0  0  0  0  0  0  0  0  0  0  0  0
    2.2324    1.8015    0.0000 C   0  0  0  0  0  0  0  0  0  0  0  0
    2.2324   -2.6985    0.0000 C   0  0  0  0  0  0  0  0  0  0  0  0
    3.5315   -0.4485    0.0000 C   0  0  0  0  0  0  0  0  0  0  0  0
    3.5315    1.0515    0.0000 C   0  0  0  0  0  0  0  0  0  0  0  0
    3.5315   -3.4485    0.0000 C   0  0  0  0  0  0  0  0  0  0  0  0
    0.9334   -3.4485    0.0000 C   0  0  0  0  0  0  0  0  0  0  0  0
    2.2324   -5.6985    0.0000 C   0  0  0  0  0  0  0  0  0  0  0  0
    3.5315   -4.9485    0.0000 C   0  0  0  0  0  0  0  0  0  0  0  0
    0.9334   -4.9485    0.0000 C   0  0  0  0  0  0  0  0  0  0  0  0
    0.9334    4.0515    0.0000 C   0  0  0  0  0  0  0  0  0  0  0  0
    0.9334   -7.9485    0.0000 C   0  0  0  0  0  0  0  0  0  0  0  0
    0.9334    5.5515    0.0000 C   0  0  0  0  0  0  0  0  0  0  0  0
   -0.3657  -10.1985    0.0000 C   0  0  0  0  0  0  0  0  0  0  0  0
   -0.3657  -11.6985    0.0000 C   0  0  0  0  0  0  0  0  0  0  0  0
   -0.3657    6.3015    0.0000 C   0  0  0  0  0  0  0  0  0  0  0  0
   -1.6646   -9.4485    0.0000 C   0  0  0  0  0  0  0  0  0  0  0  0
   -1.6646  -12.4485    0.0000 C   0  0  0  0  0  0  0  0  0  0  0  0
   -2.9637  -10.1985    0.0000 C   0  0  0  0  0  0  0  0  0  0  0  0
   -2.9637  -11.6985    0.0000 C   0  0  0  0  0  0  0  0  0  0  0  0
   -1.5792    8.6831    0.0000 C   0  0  0  0  0  0  0  0  0  0  0  0
    0.8479    8.6831    0.0000 C   0  0  0  0  0  0  0  0  0  0  0  0
   -1.1157   10.1097    0.0000 C   0  0  0  0  0  0  0  0  0  0  0  0
    0.3843   10.1097    0.0000 C   0  0  0  0  0  0  0  0  0  0  0  0
  1 30  1  0  0  0  0
  2 14  1  0  0  0  0
  2 23  1  0  0  0  0
  3 24  2  0  0  0  0
  4  5  1  0  0  0  0
  4 11  1  0  0  0  0
  5 13  2  0  0  0  0
  6 13  1  0  0  0  0
  7 20  1  0  0  0  0
  7 24  1  0  0  0  0
  8 24  1  0  0  0  0
  8 26  1  0  0  0  0
  9 28  1  0  0  0  0
  9 33  1  0  0  0  0
  9 34  1  0  0  0  0
 10 11  1  0  0  0  0
 10 12  2  0  0  0  0
 10 13  1  0  0  0  0
 11 14  2  0  0  0  0
 12 15  1  0  0  0  0
 12 16  1  0  0  0  0
 14 17  1  0  0  0  0
 15 18  2  0  0  0  0
 15 19  1  0  0  0  0
 16 17  2  0  0  0  0
 18 21  1  0  0  0  0
 19 22  2  0  0  0  0
 20 21  2  0  0  0  0
 20 22  1  0  0  0  0
 23 25  1  0  0  0  0
 25 28  1  0  0  0  0
 26 27  1  0  0  0  0
 26 29  2  0  0  0  0
 27 30  2  0  0  0  0
 29 31  1  0  0  0  0
 30 32  1  0  0  0  0
 31 32  2  0  0  0  0
 33 35  2  0  0  0  0
 34 36  2  0  0  0  0
 35 36  1  0  0  0  0
M  END
> <Value>
5.300000202445418

> <Relation>
<

> <SourceURI>
mol:CHEMBL1965387

$$$$

Generated by Molecular Materials Informatics

 12 14  0  0  0  0  0  0  0  0999 V2000
   -2.4245    0.9926    0.0000 S   0  0  0  0  0  0  0  0  0  0  0  0
    2.2963   -1.1094    0.0000 N   0  0  0  0  0  0  0  0  0  0  0  0
    3.6666   -0.4992    0.0000 N   0  0  0  0  0  0  0  0  0  0  0  0
    1.2927    0.0053    0.0000 C   0  0  0  0  0  0  0  0  0  0  0  0
   -0.2073    0.0053    0.0000 C   0  0  0  0  0  0  0  0  0  0  0  0
    2.0427    1.3044    0.0000 C   0  0  0  0  0  0  0  0  0  0  0  0
   -0.9573    1.3044    0.0000 C   0  0  0  0  0  0  0  0  0  0  0  0
   -1.2109   -1.1094    0.0000 C   0  0  0  0  0  0  0  0  0  0  0  0
    1.2927    2.6035    0.0000 C   0  0  0  0  0  0  0  0  0  0  0  0
   -0.2073    2.6035    0.0000 C   0  0  0  0  0  0  0  0  0  0  0  0
    3.5099    0.9926    0.0000 C   0  0  0  0  0  0  0  0  0  0  0  0
   -2.5812   -0.4992    0.0000 C   0  0  0  0  0  0  0  0  0  0  0  0
  1  7  1  0  0  0  0
  1 12  1  0  0  0  0
  2  3  1  0  0  0  0
  2  4  1  0  0  0  0
  3 11  2  0  0  0  0
  4  5  1  0  0  0  0
  4  6  2  0  0  0  0
  5  7  2  0  0  0  0
  5  8  1  0  0  0  0
  6  9  1  0  0  0  0
  6 11  1  0  0  0  0
  7 10  1  0  0  0  0
  8 12  2  0  0  0  0
  9 10  1  0  0  0  0
M  END
> <Value>
5.499999678657065

> <Relation>
=

> <SourceURI>
mol:CHEMBL2001539

$$$$

Generated by Molecular Materials Informatics

 17 19  0  0  0  0  0  0  0  0999 V2000
    1.5827   -4.6271    0.0000 F   0  0  0  0  0  0  0  0  0  0  0  0
    2.8818    2.1229    0.0000 N   0  0  0  0  0  0  0  0  0  0  0  0
    1.5827    4.3729    0.0000 N   0  0  0  0  0  0  0  0  0  0  0  0
   -1.1429    4.0865    0.0000 N   0  0  0  0  0  0  0  0  0  0  0  0
    0.2836    2.1229    0.0000 C   0  0  0  0  0  0  0  0  0  0  0  0
    1.5827    1.3729    0.0000 C   0  0  0  0  0  0  0  0  0  0  0  0
    0.2836    3.6229    0.0000 C   0  0  0  0  0  0  0  0  0  0  0  0
    1.5827   -0.1271    0.0000 C   0  0  0  0  0  0  0  0  0  0  0  0
   -1.1429    1.6594    0.0000 C   0  0  0  0  0  0  0  0  0  0  0  0
    2.8818   -0.8771    0.0000 C   0  0  0  0  0  0  0  0  0  0  0  0
    0.2836   -0.8771    0.0000 C   0  0  0  0  0  0  0  0  0  0  0  0
    2.8818   -2.3771    0.0000 C   0  0  0  0  0  0  0  0  0  0  0  0
    2.8818    3.6229    0.0000 C   0  0  0  0  0  0  0  0  0  0  0  0
   -2.0246    2.8729    0.0000 C   0  0  0  0  0  0  0  0  0  0  0  0
    1.5827   -3.1271    0.0000 C   0  0  0  0  0  0  0  0  0  0  0  0
    0.2836   -2.3771    0.0000 C   0  0  0  0  0  0  0  0  0  0  0  0
    4.1807   -3.1271    0.0000 C   0  0  0  0  0  0  0  0  0  0  0  0
  1 15  1  0  0  0  0
  2  6  2  0  0  0  0
  2 13  1  0  0  0  0
  3  7  1  0  0  0  0
  3 13  2  0  0  0  0
  4  7  1  0  0  0  0
  4 14  1  0  0  0  0
  5  6  1  0  0  0  0
  5  7  2  0  0  0  0
  5  9  1  0  0  0  0
  6  8  1  0  0  0  0
  8 10  1  0  0  0  0
  8 11  2  0  0  0  0
  9 14  2  0  0  0  0
 10 12  2  0  0  0  0
 11 16  1  0  0  0  0
 12 15  1  0  0  0  0
 12 17  1  0  0  0  0
 15 16  2  0  0  0  0
M  END
> <Value>
5.499999678657065

> <Relation>
=

> <SourceURI>
mol:CHEMBL1997041

$$$$

Generated by Molecular Materials Informatics

 26 29  0  0  0  0  0  0  0  0999 V2000
   -0.8899   -0.9953    0.0000 S   0  0  0  0  0  0  0  0  0  0  0  0
    8.3308    6.9681    0.0000 F   0  0  0  0  0  0  0  0  0  0  0  0
    6.2819    7.5172    0.0000 F   0  0  0  0  0  0  0  0  0  0  0  0
    7.7819    4.9192    0.0000 F   0  0  0  0  0  0  0  0  0  0  0  0
    1.8357    3.2181    0.0000 O   0  0  0  0  0  0  0  0  0  0  0  0
   -4.1533    1.4317    0.0000 O   0  0  0  0  0  0  0  0  0  0  0  0
   -4.1533   -0.9953    0.0000 N   0  0  0  0  0  0  0  0  0  0  0  0
    3.1348   -0.5319    0.0000 N   0  0  0  0  0  0  0  0  0  0  0  0
   -5.5799   -0.5319    0.0000 N   0  0  0  0  0  0  0  0  0  0  0  0
    0.5367    0.9681    0.0000 C   0  0  0  0  0  0  0  0  0  0  0  0
    0.5367   -0.5319    0.0000 C   0  0  0  0  0  0  0  0  0  0  0  0
   -1.7715    0.2181    0.0000 C   0  0  0  0  0  0  0  0  0  0  0  0
    1.8357    1.7181    0.0000 C   0  0  0  0  0  0  0  0  0  0  0  0
   -0.8899    1.4317    0.0000 C   0  0  0  0  0  0  0  0  0  0  0  0
   -3.2715    0.2181    0.0000 C   0  0  0  0  0  0  0  0  0  0  0  0
    1.8357   -1.2819    0.0000 C   0  0  0  0  0  0  0  0  0  0  0  0
    3.1348    0.9681    0.0000 C   0  0  0  0  0  0  0  0  0  0  0  0
    3.1348    3.9681    0.0000 C   0  0  0  0  0  0  0  0  0  0  0  0
   -5.5799    0.9681    0.0000 C   0  0  0  0  0  0  0  0  0  0  0  0
    5.7328    5.4681    0.0000 C   0  0  0  0  0  0  0  0  0  0  0  0
    7.0319    6.2181    0.0000 C   0  0  0  0  0  0  0  0  0  0  0  0
    3.1348    5.4681    0.0000 C   0  0  0  0  0  0  0  0  0  0  0  0
    4.4337    3.2181    0.0000 C   0  0  0  0  0  0  0  0  0  0  0  0
    4.4337    6.2181    0.0000 C   0  0  0  0  0  0  0  0  0  0  0  0
    5.7328    3.9681    0.0000 C   0  0  0  0  0  0  0  0  0  0  0  0
   -6.7933    1.8499    0.0000 C   0  0  0  0  0  0  0  0  0  0  0  0
  1 11  1  0  0  0  0
  1 12  1  0  0  0  0
  2 21  1  0  0  0  0
  3 21  1  0  0  0  0
  4 21  1  0  0  0  0
  5 13  1  0  0  0  0
  5 18  1  0  0  0  0
  6 15  1  0  0  0  0
  6 19  1  0  0  0  0
  7  9  1  0  0  0  0
  7 15  2  0  0  0  0
  8 16  1  0  0  0  0
  8 17  2  0  0  0  0
  9 19  2  0  0  0  0
 10 11  1  0  0  0  0
 10 13  2  0  0  0  0
 10 14  1  0  0  0  0
 11 16  2  0  0  0  0
 12 14  2  0  0  0  0
 12 15  1  0  0  0  0
 13 17  1  0  0  0  0
 18 22  2  0  0  0  0
 18 23  1  0  0  0  0
 19 26  1  0  0  0  0
 20 21  1  0  0  0  0
 20 24  2  0  0  0  0
 20 25  1  0  0  0  0
 22 24  1  0  0  0  0
 23 25  2  0  0  0  0
M  END
> <Value>
5.899998417198648

> <Relation>
<

> <SourceURI>
mol:CHEMBL1988153

$$$$

Generated by Molecular Materials Informatics

 26 29  0  0  0  0  0  0  0  0999 V2000
    2.6057    3.3518    0.0000 N   0  0  0  0  0  0  0  0  0  0  0  0
    3.5410    2.1791    0.0000 C   0  0  0  0  0  0  0  0  0  0  0  0
    3.2072    0.7167    0.0000 C   0  0  0  0  0  0  0  0  0  0  0  0
    1.8557    0.0658    0.0000 N   0  0  0  0  0  0  0  0  0  0  0  0
    0.5042    0.7167    0.0000 C   0  0  0  0  0  0  0  0  0  0  0  0
    0.1706    2.1791    0.0000 C   0  0  0  0  0  0  0  0  0  0  0  0
    1.1057    3.3518    0.0000 C   0  0  0  0  0  0  0  0  0  0  0  0
    4.3068   -0.3037    0.0000 C   0  0  0  0  0  0  0  0  0  0  0  0
    5.7403    0.1385    0.0000 C   0  0  0  0  0  0  0  0  0  0  0  0
    6.0739    1.6009    0.0000 C   0  0  0  0  0  0  0  0  0  0  0  0
    4.9745    2.6213    0.0000 C   0  0  0  0  0  0  0  0  0  0  0  0
   -1.2629    2.6213    0.0000 C   0  0  0  0  0  0  0  0  0  0  0  0
   -2.3623    1.6009    0.0000 C   0  0  0  0  0  0  0  0  0  0  0  0
   -2.0287    0.1385    0.0000 C   0  0  0  0  0  0  0  0  0  0  0  0
   -0.5952   -0.3037    0.0000 C   0  0  0  0  0  0  0  0  0  0  0  0
    0.4550    4.7033    0.0000 O   0  0  0  0  0  0  0  0  0  0  0  0
   -3.1282   -0.8817    0.0000 C   0  0  0  0  0  0  0  0  0  0  0  0
   -2.7945   -2.3441    0.0000 C   0  0  0  0  0  0  0  0  0  0  0  0
   -3.8940   -3.3644    0.0000 C   0  0  0  0  0  0  0  0  0  0  0  0
   -5.3275   -2.9222    0.0000 C   0  0  0  0  0  0  0  0  0  0  0  0
   -5.6613   -1.4599    0.0000 C   0  0  0  0  0  0  0  0  0  0  0  0
   -4.5616   -0.4395    0.0000 C   0  0  0  0  0  0  0  0  0  0  0  0
   -3.5602   -4.8268    0.0000 O   0  0  0  0  0  0  0  0  0  0  0  0
   -2.1269   -5.2690    0.0000 C   0  0  0  0  0  0  0  0  0  0  0  0
   -6.4269   -3.9424    0.0000 O   0  0  0  0  0  0  0  0  0  0  0  0
    3.9730   -1.7661    0.0000 O   0  0  0  0  0  0  0  0  0  0  0  0
  1  2  1  0  0  0  0
  2  3  1  0  0  0  0
  3  4  1  0  0  0  0
  4  5  1  0  0  0  0
  5  6  1  0  0  0  0
  6  7  1  0  0  0  0
  1  7  1  0  0  0  0
  8  9  1  0  0  0  0
  9 10  2  0  0  0  0
 10 11  1  0  0  0  0
  2 11  2  0  0  0  0
  3  8  2  0  0  0  0
 12 13  1  0  0  0  0
 13 14  2  0  0  0  0
 14 15  1  0  0  0  0
  5 15  2  0  0  0  0
  6 12  2  0  0  0  0
  7 16  2  0  0  0  0
 17 18  1  0  0  0  0
 18 19  2  0  0  0  0
 19 20  1  0  0  0  0
 20 21  2  0  0  0  0
 21 22  1  0  0  0  0
 17 22  2  0  0  0  0
 23 24  1  0  0  0  0
 19 23  1  0  0  0  0
 20 25  1  0  0  0  0
 14 17  1  0  0  0  0
  8 26  1  0  0  0  0
M  END
> <Value>
6.0999990348465305

> <Relation>
=

> <SourceURI>
mol:CHEMBL550418

$$$$

Generated by Molecular Materials Informatics

 26 29  0  0  0  0  0  0  0  0999 V2000
    8.6300   -3.9417    0.0000 O   0  0  0  0  0  0  0  0  0  0  0  0
   11.2280   -3.9417    0.0000 O   0  0  0  0  0  0  0  0  0  0  0  0
    2.1347   -1.6916    0.0000 N   0  0  0  0  0  0  0  0  0  0  0  0
    4.7329   -1.6916    0.0000 N   0  0  0  0  0  0  0  0  0  0  0  0
    7.3309   -1.6916    0.0000 N   0  0  0  0  0  0  0  0  0  0  0  0
   -3.1889   -1.4053    0.0000 N   0  0  0  0  0  0  0  0  0  0  0  0
    3.4338    0.5584    0.0000 N   0  0  0  0  0  0  0  0  0  0  0  0
    6.0318    0.5584    0.0000 N   0  0  0  0  0  0  0  0  0  0  0  0
   -4.0706   -0.1916    0.0000 N   0  0  0  0  0  0  0  0  0  0  0  0
   -1.7624   -0.9416    0.0000 C   0  0  0  0  0  0  0  0  0  0  0  0
   -1.7624    0.5584    0.0000 C   0  0  0  0  0  0  0  0  0  0  0  0
    0.8358   -0.9416    0.0000 C   0  0  0  0  0  0  0  0  0  0  0  0
    3.4338   -0.9416    0.0000 C   0  0  0  0  0  0  0  0  0  0  0  0
    8.6300   -0.9416    0.0000 C   0  0  0  0  0  0  0  0  0  0  0  0
    6.0318   -0.9416    0.0000 C   0  0  0  0  0  0  0  0  0  0  0  0
   -0.4633   -1.6916    0.0000 C   0  0  0  0  0  0  0  0  0  0  0  0
    9.9291   -1.6916    0.0000 C   0  0  0  0  0  0  0  0  0  0  0  0
   -0.4633    1.3084    0.0000 C   0  0  0  0  0  0  0  0  0  0  0  0
    0.8358    0.5584    0.0000 C   0  0  0  0  0  0  0  0  0  0  0  0
   -3.1889    1.0218    0.0000 C   0  0  0  0  0  0  0  0  0  0  0  0
    8.6300    0.5584    0.0000 C   0  0  0  0  0  0  0  0  0  0  0  0
    9.9291   -3.1916    0.0000 C   0  0  0  0  0  0  0  0  0  0  0  0
   11.2280   -0.9416    0.0000 C   0  0  0  0  0  0  0  0  0  0  0  0
    4.7329    1.3084    0.0000 C   0  0  0  0  0  0  0  0  0  0  0  0
    9.9291    1.3084    0.0000 C   0  0  0  0  0  0  0  0  0  0  0  0
   11.2280    0.5584    0.0000 C   0  0  0  0  0  0  0  0  0  0  0  0
  1 22  2  0  0  0  0
  2 22  1  0  0  0  0
  3 12  1  0  0  0  0
  3 13  1  0  0  0  0
  4 13  2  0  0  0  0
  4 15  1  0  0  0  0
  5 14  1  0  0  0  0
  5 15  1  0  0  0  0
  6  9  1  0  0  0  0
  6 10  1  0  0  0  0
  7 13  1  0  0  0  0
  7 24  2  0  0  0  0
  8 15  2  0  0  0  0
  8 24  1  0  0  0  0
  9 20  2  0  0  0  0
 10 11  1  0  0  0  0
 10 16  2  0  0  0  0
 11 18  2  0  0  0  0
 11 20  1  0  0  0  0
 12 16  1  0  0  0  0
 12 19  2  0  0  0  0
 14 17  1  0  0  0  0
 14 21  2  0  0  0  0
 17 22  1  0  0  0  0
 17 23  2  0  0  0  0
 18 19  1  0  0  0  0
 21 25  1  0  0  0  0
 23 26  1  0  0  0  0
 25 26  2  0  0  0  0
M  END
> <Value>
6.699991797446187

> <Relation>
=

> <SourceURI>
mol:CHEMBL1986666

$$$$

Generated by Molecular Materials Informatics

 44 50  0  0  0  0  0  0  0  0999 V2000
    0.6129   -3.5883    0.0000 O   0  0  0  0  0  0  0  0  0  0  0  0
  -16.0333    7.4234    0.0000 O   0  0  0  0  0  0  0  0  0  0  0  0
   -7.6955   -0.2403    0.0000 N   0  0  0  0  0  0  0  0  0  0  0  0
   -6.2689    0.2234    0.0000 N   0  0  0  0  0  0  0  0  0  0  0  0
   -8.8102   -2.7439    0.0000 N   0  0  0  0  0  0  0  0  0  0  0  0
   -7.0716   -4.6746    0.0000 N   0  0  0  0  0  0  0  0  0  0  0  0
    3.7445   -3.5028    0.0000 N   0  0  0  0  0  0  0  0  0  0  0  0
   -4.5304   -4.1345    0.0000 N   0  0  0  0  0  0  0  0  0  0  0  0
    0.6129   -0.9903    0.0000 N   0  0  0  0  0  0  0  0  0  0  0  0
  -12.5495    3.2865    0.0000 N   0  0  0  0  0  0  0  0  0  0  0  0
  -14.9765    5.0499    0.0000 N   0  0  0  0  0  0  0  0  0  0  0  0
   -6.2689   -2.2037    0.0000 C   0  0  0  0  0  0  0  0  0  0  0  0
   -7.6955   -1.7403    0.0000 C   0  0  0  0  0  0  0  0  0  0  0  0
   -5.3871   -0.9903    0.0000 C   0  0  0  0  0  0  0  0  0  0  0  0
   -3.8871   -0.9903    0.0000 C   0  0  0  0  0  0  0  0  0  0  0  0
   -5.9569   -3.6710    0.0000 C   0  0  0  0  0  0  0  0  0  0  0  0
   -8.9089    0.6415    0.0000 C   0  0  0  0  0  0  0  0  0  0  0  0
   -8.4982   -4.2112    0.0000 C   0  0  0  0  0  0  0  0  0  0  0  0
   -3.1371    0.3088    0.0000 C   0  0  0  0  0  0  0  0  0  0  0  0
   -3.1371   -2.2892    0.0000 C   0  0  0  0  0  0  0  0  0  0  0  0
  -10.2793    0.0314    0.0000 C   0  0  0  0  0  0  0  0  0  0  0  0
   -8.7522    2.1332    0.0000 C   0  0  0  0  0  0  0  0  0  0  0  0
    2.8629   -2.2892    0.0000 C   0  0  0  0  0  0  0  0  0  0  0  0
    5.1711   -3.0392    0.0000 C   0  0  0  0  0  0  0  0  0  0  0  0
    5.1711   -1.5392    0.0000 C   0  0  0  0  0  0  0  0  0  0  0  0
   -0.8871   -0.9903    0.0000 C   0  0  0  0  0  0  0  0  0  0  0  0
  -11.3360    2.4048    0.0000 C   0  0  0  0  0  0  0  0  0  0  0  0
    1.3629   -2.2892    0.0000 C   0  0  0  0  0  0  0  0  0  0  0  0
    3.7445   -1.0757    0.0000 C   0  0  0  0  0  0  0  0  0  0  0  0
   -1.6371    0.3088    0.0000 C   0  0  0  0  0  0  0  0  0  0  0  0
   -1.6371   -2.2892    0.0000 C   0  0  0  0  0  0  0  0  0  0  0  0
  -11.4927    0.9130    0.0000 C   0  0  0  0  0  0  0  0  0  0  0  0
   -9.9656    3.0150    0.0000 C   0  0  0  0  0  0  0  0  0  0  0  0
    6.4702   -3.7892    0.0000 C   0  0  0  0  0  0  0  0  0  0  0  0
    6.4702   -0.7892    0.0000 C   0  0  0  0  0  0  0  0  0  0  0  0
    3.2811   -4.9294    0.0000 C   0  0  0  0  0  0  0  0  0  0  0  0
    7.7693   -3.0392    0.0000 C   0  0  0  0  0  0  0  0  0  0  0  0
    7.7693   -1.5392    0.0000 C   0  0  0  0  0  0  0  0  0  0  0  0
  -13.9198    2.6765    0.0000 C   0  0  0  0  0  0  0  0  0  0  0  0
  -12.3927    4.7783    0.0000 C   0  0  0  0  0  0  0  0  0  0  0  0
  -15.1333    3.5581    0.0000 C   0  0  0  0  0  0  0  0  0  0  0  0
  -13.6062    5.6599    0.0000 C   0  0  0  0  0  0  0  0  0  0  0  0
  -16.1900    5.9315    0.0000 C   0  0  0  0  0  0  0  0  0  0  0  0
  -17.5604    5.3214    0.0000 C   0  0  0  0  0  0  0  0  0  0  0  0
  1 28  2  0  0  0  0
  2 43  2  0  0  0  0
  3  4  1  0  0  0  0
  3 13  1  0  0  0  0
  3 17  1  0  0  0  0
  4 14  2  0  0  0  0
  5 13  2  0  0  0  0
  5 18  1  0  0  0  0
  6 16  1  0  0  0  0
  6 18  2  0  0  0  0
  7 23  1  0  0  0  0
  7 24  1  0  0  0  0
  7 36  1  0  0  0  0
  8 16  1  0  0  0  0
  9 26  1  0  0  0  0
  9 28  1  0  0  0  0
 10 27  1  0  0  0  0
 10 39  1  0  0  0  0
 10 40  1  0  0  0  0
 11 41  1  0  0  0  0
 11 42  1  0  0  0  0
 11 43  1  0  0  0  0
 12 13  1  0  0  0  0
 12 14  1  0  0  0  0
 12 16  2  0  0  0  0
 14 15  1  0  0  0  0
 15 19  2  0  0  0  0
 15 20  1  0  0  0  0
 17 21  1  0  0  0  0
 17 22  1  0  0  0  0
 19 30  1  0  0  0  0
 20 31  2  0  0  0  0
 21 32  1  0  0  0  0
 22 33  1  0  0  0  0
 23 28  1  0  0  0  0
 23 29  2  0  0  0  0
 24 25  1  0  0  0  0
 24 34  2  0  0  0  0
 25 29  1  0  0  0  0
 25 35  2  0  0  0  0
 26 30  2  0  0  0  0
 26 31  1  0  0  0  0
 27 32  1  0  0  0  0
 27 33  1  0  0  0  0
 34 37  1  0  0  0  0
 35 38  1  0  0  0  0
 37 38  2  0  0  0  0
 39 41  1  0  0  0  0
 40 42  1  0  0  0  0
 43 44  1  0  0  0  0
M  END
> <Value>
5.899998417198648

> <Relation>
<

> <SourceURI>
mol:CHEMBL1972584

$$$$

Generated by Molecular Materials Informatics

 25 28  0  0  0  0  0  0  0  0999 V2000
   -3.4765    1.3442    0.0000 O   0  0  0  0  0  0  0  0  0  0  0  0
    0.0620   -8.9200    0.0000 O   0  0  0  0  0  0  0  0  0  0  0  0
   -1.0949    2.5577    0.0000 N   0  0  0  0  0  0  0  0  0  0  0  0
   -3.0256   -1.6078    0.0000 N   0  0  0  0  0  0  0  0  0  0  0  0
   -1.9452   -6.6905    0.0000 N   0  0  0  0  0  0  0  0  0  0  0  0
    5.5278   -0.9058    0.0000 N   0  0  0  0  0  0  0  0  0  0  0  0
   -1.0949    0.1306    0.0000 C   0  0  0  0  0  0  0  0  0  0  0  0
    0.3317    0.5942    0.0000 C   0  0  0  0  0  0  0  0  0  0  0  0
    0.3317    2.0942    0.0000 C   0  0  0  0  0  0  0  0  0  0  0  0
   -1.9765    1.3442    0.0000 C   0  0  0  0  0  0  0  0  0  0  0  0
   -1.5583   -1.2960    0.0000 C   0  0  0  0  0  0  0  0  0  0  0  0
    1.6308   -0.1558    0.0000 C   0  0  0  0  0  0  0  0  0  0  0  0
    1.6308    2.8442    0.0000 C   0  0  0  0  0  0  0  0  0  0  0  0
    2.9298    0.5942    0.0000 C   0  0  0  0  0  0  0  0  0  0  0  0
   -0.5547   -2.4107    0.0000 C   0  0  0  0  0  0  0  0  0  0  0  0
    2.9298    2.0942    0.0000 C   0  0  0  0  0  0  0  0  0  0  0  0
   -2.4854   -4.1491    0.0000 C   0  0  0  0  0  0  0  0  0  0  0  0
   -3.4892   -3.0345    0.0000 C   0  0  0  0  0  0  0  0  0  0  0  0
   -1.0183   -3.8373    0.0000 C   0  0  0  0  0  0  0  0  0  0  0  0
   -2.9491   -5.5758    0.0000 C   0  0  0  0  0  0  0  0  0  0  0  0
    4.2288   -0.1558    0.0000 C   0  0  0  0  0  0  0  0  0  0  0  0
   -2.4089   -8.1171    0.0000 C   0  0  0  0  0  0  0  0  0  0  0  0
   -0.4782   -6.3785    0.0000 C   0  0  0  0  0  0  0  0  0  0  0  0
   -1.4051   -9.2318    0.0000 C   0  0  0  0  0  0  0  0  0  0  0  0
    0.5257   -7.4933    0.0000 C   0  0  0  0  0  0  0  0  0  0  0  0
  1 10  1  0  0  0  0
  2 24  1  0  0  0  0
  2 25  1  0  0  0  0
  3  9  1  0  0  0  0
  3 10  1  0  0  0  0
  4 11  1  0  0  0  0
  4 18  2  0  0  0  0
  5 20  1  0  0  0  0
  5 22  1  0  0  0  0
  5 23  1  0  0  0  0
  6 21  3  0  0  0  0
  7  8  1  0  0  0  0
  7 10  2  0  0  0  0
  7 11  1  0  0  0  0
  8  9  1  0  0  0  0
  8 12  2  0  0  0  0
  9 13  2  0  0  0  0
 11 15  2  0  0  0  0
 12 14  1  0  0  0  0
 13 16  1  0  0  0  0
 14 16  2  0  0  0  0
 14 21  1  0  0  0  0
 15 19  1  0  0  0  0
 17 18  1  0  0  0  0
 17 19  2  0  0  0  0
 17 20  1  0  0  0  0
 22 24  1  0  0  0  0
 23 25  1  0  0  0  0
M  END
> <Value>
5.40000018605658

> <Relation>
<

> <SourceURI>
mol:CHEMBL1969664

$$$$

Generated by Molecular Materials Informatics

 18 19  0  0  0  0  0  0  0  0999 V2000
    3.1411   -0.1489    0.0000 S   0  0  0  0  0  0  0  0  0  0  0  0
    0.2960   -2.7891    0.0000 O   0  0  0  0  0  0  0  0  0  0  0  0
    5.3228   -5.2162    0.0000 O   0  0  0  0  0  0  0  0  0  0  0  0
    1.1190   -8.2704    0.0000 O   0  0  0  0  0  0  0  0  0  0  0  0
    0.7142   -0.1489    0.0000 N   0  0  0  0  0  0  0  0  0  0  0  0
    1.9277    2.2327    0.0000 N   0  0  0  0  0  0  0  0  0  0  0  0
    2.6777   -1.5757    0.0000 C   0  0  0  0  0  0  0  0  0  0  0  0
    1.1777   -1.5757    0.0000 C   0  0  0  0  0  0  0  0  0  0  0  0
    2.9493   -4.1595    0.0000 C   0  0  0  0  0  0  0  0  0  0  0  0
    3.5593   -2.7891    0.0000 C   0  0  0  0  0  0  0  0  0  0  0  0
    1.9277    0.7327    0.0000 C   0  0  0  0  0  0  0  0  0  0  0  0
    3.8309   -5.3729    0.0000 C   0  0  0  0  0  0  0  0  0  0  0  0
    1.4575   -4.3162    0.0000 C   0  0  0  0  0  0  0  0  0  0  0  0
    1.7291   -6.9000    0.0000 C   0  0  0  0  0  0  0  0  0  0  0  0
    3.2208   -6.7433    0.0000 C   0  0  0  0  0  0  0  0  0  0  0  0
    0.8473   -5.6866    0.0000 C   0  0  0  0  0  0  0  0  0  0  0  0
   -0.3729   -8.4271    0.0000 C   0  0  0  0  0  0  0  0  0  0  0  0
   -0.9829   -9.7975    0.0000 C   0  0  0  0  0  0  0  0  0  0  0  0
  1  7  1  0  0  0  0
  1 11  1  0  0  0  0
  2  8  2  0  0  0  0
  3 12  1  0  0  0  0
  4 14  1  0  0  0  0
  4 17  1  0  0  0  0
  5  8  1  0  0  0  0
  5 11  1  0  0  0  0
  6 11  2  0  0  0  0
  7  8  1  0  0  0  0
  7 10  2  0  0  0  0
 10  9  1  0  0  0  0
  9 12  1  0  0  0  0
  9 13  2  0  0  0  0
 12 15  2  0  0  0  0
 13 16  1  0  0  0  0
 14 15  1  0  0  0  0
 14 16  2  0  0  0  0
 17 18  1  0  0  0  0
M  END
> <Value>
6.599997654072044

> <Relation>
=

> <SourceURI>
mol:CHEMBL1971289

$$$$

Generated by Molecular Materials Informatics

 18 20  0  0  0  0  0  0  0  0999 V2000
   -0.3444   -0.7030    0.0000 S   0  0  0  0  0  0  0  0  0  0  0  0
   -3.4760   -0.7885    0.0000 O   0  0  0  0  0  0  0  0  0  0  0  0
    3.6802   -0.2396    0.0000 N   0  0  0  0  0  0  0  0  0  0  0  0
   -3.4760    1.8095    0.0000 N   0  0  0  0  0  0  0  0  0  0  0  0
    1.0821    1.2604    0.0000 C   0  0  0  0  0  0  0  0  0  0  0  0
    1.0821   -0.2396    0.0000 C   0  0  0  0  0  0  0  0  0  0  0  0
    2.3812    2.0104    0.0000 C   0  0  0  0  0  0  0  0  0  0  0  0
   -1.2261    0.5104    0.0000 C   0  0  0  0  0  0  0  0  0  0  0  0
   -0.3444    1.7241    0.0000 C   0  0  0  0  0  0  0  0  0  0  0  0
    2.3812    3.5104    0.0000 C   0  0  0  0  0  0  0  0  0  0  0  0
    2.3812   -0.9895    0.0000 C   0  0  0  0  0  0  0  0  0  0  0  0
    3.6802    1.2604    0.0000 C   0  0  0  0  0  0  0  0  0  0  0  0
   -2.7260    0.5104    0.0000 C   0  0  0  0  0  0  0  0  0  0  0  0
    1.0821    4.2604    0.0000 C   0  0  0  0  0  0  0  0  0  0  0  0
    3.6802    4.2604    0.0000 C   0  0  0  0  0  0  0  0  0  0  0  0
    1.0821    5.7604    0.0000 C   0  0  0  0  0  0  0  0  0  0  0  0
    3.6802    5.7604    0.0000 C   0  0  0  0  0  0  0  0  0  0  0  0
    2.3812    6.5103    0.0000 C   0  0  0  0  0  0  0  0  0  0  0  0
  1  6  1  0  0  0  0
  1  8  1  0  0  0  0
  2 13  2  0  0  0  0
  3 11  1  0  0  0  0
  3 12  2  0  0  0  0
  4 13  1  0  0  0  0
  5  6  1  0  0  0  0
  5  7  2  0  0  0  0
  5  9  1  0  0  0  0
  6 11  2  0  0  0  0
  7 10  1  0  0  0  0
  7 12  1  0  0  0  0
  8  9  2  0  0  0  0
  8 13  1  0  0  0  0
 10 14  2  0  0  0  0
 10 15  1  0  0  0  0
 14 16  1  0  0  0  0
 15 17  2  0  0  0  0
 16 18  2  0  0  0  0
 17 18  1  0  0  0  0
M  END
> <Value>
6.399996913372259

> <Relation>
=

> <SourceURI>
mol:CHEMBL1999556

$$$$

Generated by Molecular Materials Informatics

 28 31  0  0  0  0  0  0  0  0999 V2000
    4.0786    1.2480    0.0000 S   0  0  0  0  0  0  0  0  0  0  0  0
    5.3777    3.4980    0.0000 O   0  0  0  0  0  0  0  0  0  0  0  0
   -1.2450    0.9615    0.0000 N   0  0  0  0  0  0  0  0  0  0  0  0
   -2.1267   -0.2520    0.0000 N   0  0  0  0  0  0  0  0  0  0  0  0
    7.9757    3.4980    0.0000 N   0  0  0  0  0  0  0  0  0  0  0  0
   -5.1065   -4.9425    0.0000 N   0  0  0  0  0  0  0  0  0  0  0  0
    0.1815   -1.0020    0.0000 C   0  0  0  0  0  0  0  0  0  0  0  0
    0.1815    0.4980    0.0000 C   0  0  0  0  0  0  0  0  0  0  0  0
   -1.2450   -1.4656    0.0000 C   0  0  0  0  0  0  0  0  0  0  0  0
    2.7797    0.4980    0.0000 C   0  0  0  0  0  0  0  0  0  0  0  0
    1.4806    1.2480    0.0000 C   0  0  0  0  0  0  0  0  0  0  0  0
    1.4806   -1.7520    0.0000 C   0  0  0  0  0  0  0  0  0  0  0  0
    5.3777    0.4980    0.0000 C   0  0  0  0  0  0  0  0  0  0  0  0
    2.7797   -1.0020    0.0000 C   0  0  0  0  0  0  0  0  0  0  0  0
    6.6768    1.2480    0.0000 C   0  0  0  0  0  0  0  0  0  0  0  0
   -1.7085   -2.8922    0.0000 C   0  0  0  0  0  0  0  0  0  0  0  0
    6.6768    2.7480    0.0000 C   0  0  0  0  0  0  0  0  0  0  0  0
    5.3777   -1.0020    0.0000 C   0  0  0  0  0  0  0  0  0  0  0  0
    7.9757    0.4980    0.0000 C   0  0  0  0  0  0  0  0  0  0  0  0
   -3.1757   -3.2040    0.0000 C   0  0  0  0  0  0  0  0  0  0  0  0
    6.6768   -1.7520    0.0000 C   0  0  0  0  0  0  0  0  0  0  0  0
    7.9757   -1.0020    0.0000 C   0  0  0  0  0  0  0  0  0  0  0  0
   -3.6394   -4.6307    0.0000 C   0  0  0  0  0  0  0  0  0  0  0  0
   -2.6356   -5.7453    0.0000 C   0  0  0  0  0  0  0  0  0  0  0  0
   -5.5701   -6.3691    0.0000 C   0  0  0  0  0  0  0  0  0  0  0  0
   -3.0992   -7.1720    0.0000 C   0  0  0  0  0  0  0  0  0  0  0  0
    7.9757    4.9980    0.0000 C   0  0  0  0  0  0  0  0  0  0  0  0
   -4.5663   -7.4838    0.0000 C   0  0  0  0  0  0  0  0  0  0  0  0
  1 10  1  0  0  0  0
  1 13  1  0  0  0  0
  2 17  2  0  0  0  0
  3  4  1  0  0  0  0
  3  8  1  0  0  0  0
  4  9  2  0  0  0  0
  5 17  1  0  0  0  0
  5 27  1  0  0  0  0
  6 23  1  0  0  0  0
  6 25  2  0  0  0  0
  7  8  1  0  0  0  0
  7  9  1  0  0  0  0
  7 12  2  0  0  0  0
  8 11  2  0  0  0  0
 16  9  1  0  0  0  0
 10 11  1  0  0  0  0
 10 14  2  0  0  0  0
 12 14  1  0  0  0  0
 13 15  1  0  0  0  0
 13 18  2  0  0  0  0
 15 17  1  0  0  0  0
 15 19  2  0  0  0  0
 16 20  2  0  0  0  0
 18 21  1  0  0  0  0
 19 22  1  0  0  0  0
 20 23  1  0  0  0  0
 21 22  2  0  0  0  0
 23 24  2  0  0  0  0
 24 26  1  0  0  0  0
 25 28  1  0  0  0  0
 26 28  2  0  0  0  0
M  END
> <Value>
5.499999678657065

> <Relation>
<

> <SourceURI>
mol:CHEMBL1988437

$$$$

Generated by Molecular Materials Informatics

 29 32  0  0  0  0  0  0  0  0999 V2000
   -6.3160   -3.0071    0.0000 Cl  0  0  0  0  0  0  0  0  0  0  0  0
   -3.3814   -2.3834    0.0000 O   0  0  0  0  0  0  0  0  0  0  0  0
    0.4800    3.5206    0.0000 N   0  0  0  0  0  0  0  0  0  0  0  0
   -5.7758   -5.5483    0.0000 N   0  0  0  0  0  0  0  0  0  0  0  0
   -2.4545    0.4698    0.0000 N   0  0  0  0  0  0  0  0  0  0  0  0
    0.2464  -12.2367    0.0000 N   0  0  0  0  0  0  0  0  0  0  0  0
    1.9066    1.5571    0.0000 C   0  0  0  0  0  0  0  0  0  0  0  0
    0.4800    1.0935    0.0000 C   0  0  0  0  0  0  0  0  0  0  0  0
    1.9066    3.0571    0.0000 C   0  0  0  0  0  0  0  0  0  0  0  0
   -0.4016    2.3071    0.0000 C   0  0  0  0  0  0  0  0  0  0  0  0
   -3.8451   -3.8100    0.0000 C   0  0  0  0  0  0  0  0  0  0  0  0
    0.0166   -0.3331    0.0000 C   0  0  0  0  0  0  0  0  0  0  0  0
    3.2057    0.8071    0.0000 C   0  0  0  0  0  0  0  0  0  0  0  0
    3.2057    3.8071    0.0000 C   0  0  0  0  0  0  0  0  0  0  0  0
   -5.3121   -4.1218    0.0000 C   0  0  0  0  0  0  0  0  0  0  0  0
   -1.4507   -0.6449    0.0000 C   0  0  0  0  0  0  0  0  0  0  0  0
   -3.3049   -6.3512    0.0000 C   0  0  0  0  0  0  0  0  0  0  0  0
   -2.8412   -4.9247    0.0000 C   0  0  0  0  0  0  0  0  0  0  0  0
    4.5048    1.5571    0.0000 C   0  0  0  0  0  0  0  0  0  0  0  0
   -1.9143   -2.0716    0.0000 C   0  0  0  0  0  0  0  0  0  0  0  0
    4.5048    3.0571    0.0000 C   0  0  0  0  0  0  0  0  0  0  0  0
   -4.7720   -6.6631    0.0000 C   0  0  0  0  0  0  0  0  0  0  0  0
   -2.3011   -7.4660    0.0000 C   0  0  0  0  0  0  0  0  0  0  0  0
   -2.7647   -8.8925    0.0000 C   0  0  0  0  0  0  0  0  0  0  0  0
   -1.7609  -10.0072    0.0000 C   0  0  0  0  0  0  0  0  0  0  0  0
   -2.2245  -11.4338    0.0000 C   0  0  0  0  0  0  0  0  0  0  0  0
   -0.2938   -9.6954    0.0000 C   0  0  0  0  0  0  0  0  0  0  0  0
   -1.2209  -12.5485    0.0000 C   0  0  0  0  0  0  0  0  0  0  0  0
    0.7100  -10.8102    0.0000 C   0  0  0  0  0  0  0  0  0  0  0  0
  1 15  1  0  0  0  0
  2 11  1  0  0  0  0
  2 20  1  0  0  0  0
  3  9  1  0  0  0  0
  3 10  1  0  0  0  0
  4 15  2  0  0  0  0
  4 22  1  0  0  0  0
  5 16  1  0  0  0  0
  6 28  2  0  0  0  0
  6 29  1  0  0  0  0
  7  8  1  0  0  0  0
  7  9  1  0  0  0  0
  7 13  2  0  0  0  0
  8 10  2  0  0  0  0
  8 12  1  0  0  0  0
  9 14  2  0  0  0  0
 11 15  1  0  0  0  0
 11 18  2  0  0  0  0
 12 16  1  0  0  0  0
 13 19  1  0  0  0  0
 14 21  1  0  0  0  0
 16 20  1  0  0  0  0
 17 18  1  0  0  0  0
 17 22  2  0  0  0  0
 23 17  1  0  0  0  0
 19 21  2  0  0  0  0
 23 24  2  0  0  0  0
 24 25  1  0  0  0  0
 25 26  2  0  0  0  0
 25 27  1  0  0  0  0
 26 28  1  0  0  0  0
 27 29  2  0  0  0  0
M  END
> <Value>
5.899998417198648

> <Relation>
<

> <SourceURI>
mol:CHEMBL1968245

$$$$

Generated by Molecular Materials Informatics

 33 36  0  0  0  0  0  0  0  0999 V2000
    0.7477    3.7794    0.0000 S   0  0  0  0  0  0  0  0  0  0  0  0
   -3.5774   -3.5511    0.0000 O   0  0  0  0  0  0  0  0  0  0  0  0
    4.7724    1.8158    0.0000 N   0  0  0  0  0  0  0  0  0  0  0  0
    3.4733   -0.4342    0.0000 N   0  0  0  0  0  0  0  0  0  0  0  0
   -1.1065   -4.3540    0.0000 N   0  0  0  0  0  0  0  0  0  0  0  0
   -3.0372   -6.0924    0.0000 N   0  0  0  0  0  0  0  0  0  0  0  0
    3.4733   10.0658    0.0000 N   0  0  0  0  0  0  0  0  0  0  0  0
    2.1743    1.8158    0.0000 C   0  0  0  0  0  0  0  0  0  0  0  0
    2.1743    3.3158    0.0000 C   0  0  0  0  0  0  0  0  0  0  0  0
    0.7477    1.3523    0.0000 C   0  0  0  0  0  0  0  0  0  0  0  0
    3.4733    4.0658    0.0000 C   0  0  0  0  0  0  0  0  0  0  0  0
    3.4733    1.0658    0.0000 C   0  0  0  0  0  0  0  0  0  0  0  0
    0.2843   -0.0742    0.0000 C   0  0  0  0  0  0  0  0  0  0  0  0
   -0.1339    2.5658    0.0000 C   0  0  0  0  0  0  0  0  0  0  0  0
    4.7724    3.3158    0.0000 C   0  0  0  0  0  0  0  0  0  0  0  0
    1.2879   -1.1889    0.0000 C   0  0  0  0  0  0  0  0  0  0  0  0
   -1.1830   -0.3860    0.0000 C   0  0  0  0  0  0  0  0  0  0  0  0
    3.4733    5.5658    0.0000 C   0  0  0  0  0  0  0  0  0  0  0  0
   -0.6428   -2.9275    0.0000 C   0  0  0  0  0  0  0  0  0  0  0  0
    0.8243   -2.6155    0.0000 C   0  0  0  0  0  0  0  0  0  0  0  0
   -1.6467   -1.8127    0.0000 C   0  0  0  0  0  0  0  0  0  0  0  0
    3.4733    7.0658    0.0000 C   0  0  0  0  0  0  0  0  0  0  0  0
    3.4733    8.5658    0.0000 C   0  0  0  0  0  0  0  0  0  0  0  0
   -2.5736   -4.6658    0.0000 C   0  0  0  0  0  0  0  0  0  0  0  0
   -4.5043   -6.4044    0.0000 C   0  0  0  0  0  0  0  0  0  0  0  0
    1.9733    8.5658    0.0000 C   0  0  0  0  0  0  0  0  0  0  0  0
    4.9733    8.5658    0.0000 C   0  0  0  0  0  0  0  0  0  0  0  0
   -4.9679   -7.8309    0.0000 C   0  0  0  0  0  0  0  0  0  0  0  0
   -5.5081   -5.2897    0.0000 C   0  0  0  0  0  0  0  0  0  0  0  0
   -6.4352   -8.1427    0.0000 C   0  0  0  0  0  0  0  0  0  0  0  0
   -6.9754   -5.6015    0.0000 C   0  0  0  0  0  0  0  0  0  0  0  0
   -7.4388   -7.0280    0.0000 C   0  0  0  0  0  0  0  0  0  0  0  0
   -6.8987   -9.5693    0.0000 C   0  0  0  0  0  0  0  0  0  0  0  0
  1  9  1  0  0  0  0
  1 14  1  0  0  0  0
  2 24  2  0  0  0  0
  3 12  1  0  0  0  0
  3 15  2  0  0  0  0
  4 12  1  0  0  0  0
  5 19  1  0  0  0  0
  5 24  1  0  0  0  0
  6 24  1  0  0  0  0
  6 25  1  0  0  0  0
  7 23  1  0  0  0  0
  8  9  1  0  0  0  0
  8 10  1  0  0  0  0
  8 12  2  0  0  0  0
  9 11  2  0  0  0  0
 10 13  1  0  0  0  0
 10 14  2  0  0  0  0
 11 15  1  0  0  0  0
 11 18  1  0  0  0  0
 13 16  2  0  0  0  0
 13 17  1  0  0  0  0
 16 20  1  0  0  0  0
 17 21  2  0  0  0  0
 18 22  3  0  0  0  0
 19 20  2  0  0  0  0
 19 21  1  0  0  0  0
 22 23  1  0  0  0  0
 23 26  1  0  0  0  0
 23 27  1  0  0  0  0
 25 28  2  0  0  0  0
 25 29  1  0  0  0  0
 28 30  1  0  0  0  0
 29 31  2  0  0  0  0
 30 32  2  0  0  0  0
 30 33  1  0  0  0  0
 31 32  1  0  0  0  0
M  END
> <Value>
6.0999990348465305

> <Relation>
=

> <SourceURI>
mol:CHEMBL1979577

$$$$

Generated by Molecular Materials Informatics

 24 26  0  0  0  0  0  0  0  0999 V2000
    4.5900    6.8143    0.0000 Cl  0  0  0  0  0  0  0  0  0  0  0  0
    7.5899    6.8143    0.0000 Cl  0  0  0  0  0  0  0  0  0  0  0  0
    2.3400    2.9172    0.0000 O   0  0  0  0  0  0  0  0  0  0  0  0
    2.3400    0.3192    0.0000 N   0  0  0  0  0  0  0  0  0  0  0  0
   -3.6271    0.0074    0.0000 N   0  0  0  0  0  0  0  0  0  0  0  0
   -3.7838   -1.4843    0.0000 N   0  0  0  0  0  0  0  0  0  0  0  0
    7.5899   -0.9798    0.0000 N   0  0  0  0  0  0  0  0  0  0  0  0
   -1.4098   -0.9798    0.0000 C   0  0  0  0  0  0  0  0  0  0  0  0
    4.5900    1.6183    0.0000 C   0  0  0  0  0  0  0  0  0  0  0  0
    5.3399    2.9172    0.0000 C   0  0  0  0  0  0  0  0  0  0  0  0
   -2.1598    0.3192    0.0000 C   0  0  0  0  0  0  0  0  0  0  0  0
    0.8401    0.3192    0.0000 C   0  0  0  0  0  0  0  0  0  0  0  0
    3.0900    1.6183    0.0000 C   0  0  0  0  0  0  0  0  0  0  0  0
    0.0901   -0.9798    0.0000 C   0  0  0  0  0  0  0  0  0  0  0  0
    4.5900    4.2162    0.0000 C   0  0  0  0  0  0  0  0  0  0  0  0
   -1.4098    1.6183    0.0000 C   0  0  0  0  0  0  0  0  0  0  0  0
    0.0901    1.6183    0.0000 C   0  0  0  0  0  0  0  0  0  0  0  0
    5.3399    5.5153    0.0000 C   0  0  0  0  0  0  0  0  0  0  0  0
   -2.4135   -2.0945    0.0000 C   0  0  0  0  0  0  0  0  0  0  0  0
    6.8399    2.9172    0.0000 C   0  0  0  0  0  0  0  0  0  0  0  0
    6.8399    5.5153    0.0000 C   0  0  0  0  0  0  0  0  0  0  0  0
    5.3399    0.3192    0.0000 C   0  0  0  0  0  0  0  0  0  0  0  0
    7.5899    4.2162    0.0000 C   0  0  0  0  0  0  0  0  0  0  0  0
    6.8399    0.3192    0.0000 C   0  0  0  0  0  0  0  0  0  0  0  0
  1 18  1  0  0  0  0
  2 21  1  0  0  0  0
  3 13  2  0  0  0  0
  4 12  1  0  0  0  0
  4 13  1  0  0  0  0
  5  6  1  0  0  0  0
  5 11  1  0  0  0  0
  6 19  2  0  0  0  0
  7 24  1  0  0  0  0
  8 11  1  0  0  0  0
  8 14  2  0  0  0  0
  8 19  1  0  0  0  0
  9 10  1  0  0  0  0
  9 13  1  0  0  0  0
  9 22  1  0  0  0  0
 10 15  1  0  0  0  0
 10 20  2  0  0  0  0
 11 16  2  0  0  0  0
 12 14  1  0  0  0  0
 12 17  2  0  0  0  0
 15 18  2  0  0  0  0
 16 17  1  0  0  0  0
 18 21  1  0  0  0  0
 20 23  1  0  0  0  0
 21 23  2  0  0  0  0
 22 24  1  0  0  0  0
M  END
> <Value>
7.0

> <Relation>
=

> <SourceURI>
mol:CHEMBL1998121

$$$$

Generated by Molecular Materials Informatics

 21 24  0  0  0  0  0  0  0  0999 V2000
   -3.9453   -4.7929    0.0000 C   0  0  0  0  0  0  0  0  0  0  0  0
   -4.2571   -3.3257    0.0000 N   0  0  0  0  0  0  0  0  0  0  0  0
   -3.1424   -2.3220    0.0000 C   0  0  0  0  0  0  0  0  0  0  0  0
   -1.7158   -2.7855    0.0000 C   0  0  0  0  0  0  0  0  0  0  0  0
   -1.4040   -4.2528    0.0000 N   0  0  0  0  0  0  0  0  0  0  0  0
   -2.5187   -5.2564    0.0000 C   0  0  0  0  0  0  0  0  0  0  0  0
   -3.1424   -0.8220    0.0000 C   0  0  0  0  0  0  0  0  0  0  0  0
   -1.7158   -0.3584    0.0000 C   0  0  0  0  0  0  0  0  0  0  0  0
   -0.8342   -1.5720    0.0000 N   0  0  0  0  0  0  0  0  0  0  0  0
   -1.2524    1.0682    0.0000 C   0  0  0  0  0  0  0  0  0  0  0  0
    0.1744    1.5316    0.0000 C   0  0  0  0  0  0  0  0  0  0  0  0
    0.1744    3.0316    0.0000 C   0  0  0  0  0  0  0  0  0  0  0  0
   -1.2524    3.4952    0.0000 N   0  0  0  0  0  0  0  0  0  0  0  0
   -2.1340    2.2816    0.0000 C   0  0  0  0  0  0  0  0  0  0  0  0
    1.4733    0.7816    0.0000 C   0  0  0  0  0  0  0  0  0  0  0  0
    2.7724    1.5316    0.0000 C   0  0  0  0  0  0  0  0  0  0  0  0
    2.7724    3.0316    0.0000 C   0  0  0  0  0  0  0  0  0  0  0  0
    1.4733    3.7816    0.0000 C   0  0  0  0  0  0  0  0  0  0  0  0
   -1.7158    4.9218    0.0000 C   0  0  0  0  0  0  0  0  0  0  0  0
    4.0715    0.7816    0.0000 O   0  0  0  0  0  0  0  0  0  0  0  0
    5.3704    1.5316    0.0000 C   0  0  0  0  0  0  0  0  0  0  0  0
  1  2  2  0  0  0  0
  1  6  1  0  0  0  0
  3  2  1  0  0  0  0
  3  4  2  0  0  0  0
  3  7  1  0  0  0  0
  4  5  1  0  0  0  0
  4  9  1  0  0  0  0
  6  5  2  0  0  0  0
  8  7  2  0  0  0  0
  8  9  1  0  0  0  0
  8 10  1  0  0  0  0
 10 11  1  0  0  0  0
 10 14  2  0  0  0  0
 11 12  1  0  0  0  0
 11 15  2  0  0  0  0
 12 13  1  0  0  0  0
 12 18  2  0  0  0  0
 14 13  1  0  0  0  0
 19 13  1  0  0  0  0
 15 16  1  0  0  0  0
 16 17  2  0  0  0  0
 16 20  1  0  0  0  0
 17 18  1  0  0  0  0
 21 20  1  0  0  0  0
M  END
> <Value>
5.300000202445418

> <Relation>
<

> <SourceURI>
mol:CHEMBL1233887

$$$$

Generated by Molecular Materials Informatics

 13 14  0  0  0  0  0  0  0  0999 V2000
    0.6841    3.2311    0.0000 O   0  0  0  0  0  0  0  0  0  0  0  0
   -1.4539   -1.4165    0.0000 N   0  0  0  0  0  0  0  0  0  0  0  0
    1.0179   -1.6018    0.0000 N   0  0  0  0  0  0  0  0  0  0  0  0
   -2.7528    0.8335    0.0000 N   0  0  0  0  0  0  0  0  0  0  0  0
    2.4803    1.4349    0.0000 N   0  0  0  0  0  0  0  0  0  0  0  0
   -1.4539    3.0835    0.0000 N   0  0  0  0  0  0  0  0  0  0  0  0
   -0.1548    0.8335    0.0000 C   0  0  0  0  0  0  0  0  0  0  0  0
   -0.1548   -0.6665    0.0000 C   0  0  0  0  0  0  0  0  0  0  0  0
   -1.4539    1.5835    0.0000 C   0  0  0  0  0  0  0  0  0  0  0  0
    1.0179    1.7687    0.0000 C   0  0  0  0  0  0  0  0  0  0  0  0
   -2.7528   -0.6665    0.0000 C   0  0  0  0  0  0  0  0  0  0  0  0
    2.4803   -1.2680    0.0000 C   0  0  0  0  0  0  0  0  0  0  0  0
    3.1312    0.0835    0.0000 C   0  0  0  0  0  0  0  0  0  0  0  0
  1 10  2  0  0  0  0
  2  8  1  0  0  0  0
  2 11  2  0  0  0  0
  3  8  1  0  0  0  0
  3 12  1  0  0  0  0
  4  9  2  0  0  0  0
  4 11  1  0  0  0  0
  5 10  1  0  0  0  0
  5 13  1  0  0  0  0
  6  9  1  0  0  0  0
  7  8  2  0  0  0  0
  7  9  1  0  0  0  0
  7 10  1  0  0  0  0
 12 13  1  0  0  0  0
M  END
> <Value>
4.800000052738446

> <Relation>
=

> <SourceURI>
mol:CHEMBL1992607

$$$$

Generated by Molecular Materials Informatics

 36 39  0  0  0  0  0  0  0  0999 V2000
   -0.4881   -5.9346    0.0000 O   0  0  0  0  0  0  0  0  0  0  0  0
    2.1100   -4.4346    0.0000 O   0  0  0  0  0  0  0  0  0  0  0  0
   -5.7038    2.0441    0.0000 O   0  0  0  0  0  0  0  0  0  0  0  0
   -4.0982    6.9860    0.0000 O   0  0  0  0  0  0  0  0  0  0  0  0
   -2.3597    5.0551    0.0000 O   0  0  0  0  0  0  0  0  0  0  0  0
   -4.4563   -3.8245    0.0000 N   0  0  0  0  0  0  0  0  0  0  0  0
   -5.4599   -4.9392    0.0000 N   0  0  0  0  0  0  0  0  0  0  0  0
   -1.7870   -3.6847    0.0000 N   0  0  0  0  0  0  0  0  0  0  0  0
   -3.0860   -4.4346    0.0000 C   0  0  0  0  0  0  0  0  0  0  0  0
   -4.7100   -6.2382    0.0000 C   0  0  0  0  0  0  0  0  0  0  0  0
   -3.2427   -5.9264    0.0000 C   0  0  0  0  0  0  0  0  0  0  0  0
   -4.7681   -2.3574    0.0000 C   0  0  0  0  0  0  0  0  0  0  0  0
   -5.3201   -7.6085    0.0000 C   0  0  0  0  0  0  0  0  0  0  0  0
    0.8110   -2.1847    0.0000 C   0  0  0  0  0  0  0  0  0  0  0  0
   -0.4881   -4.4346    0.0000 C   0  0  0  0  0  0  0  0  0  0  0  0
    0.8110   -3.6847    0.0000 C   0  0  0  0  0  0  0  0  0  0  0  0
    2.1100   -1.4347    0.0000 C   0  0  0  0  0  0  0  0  0  0  0  0
    2.1100    0.0652    0.0000 C   0  0  0  0  0  0  0  0  0  0  0  0
   -6.1947   -1.8938    0.0000 C   0  0  0  0  0  0  0  0  0  0  0  0
   -3.6535   -1.3536    0.0000 C   0  0  0  0  0  0  0  0  0  0  0  0
   -0.4881   -1.4347    0.0000 C   0  0  0  0  0  0  0  0  0  0  0  0
    3.4089   -2.1847    0.0000 C   0  0  0  0  0  0  0  0  0  0  0  0
   -5.3920    0.5771    0.0000 C   0  0  0  0  0  0  0  0  0  0  0  0
   -6.5066   -0.4267    0.0000 C   0  0  0  0  0  0  0  0  0  0  0  0
   -3.9653    0.1134    0.0000 C   0  0  0  0  0  0  0  0  0  0  0  0
    0.8110    0.8152    0.0000 C   0  0  0  0  0  0  0  0  0  0  0  0
   -5.9301   -8.9789    0.0000 C   0  0  0  0  0  0  0  0  0  0  0  0
   -3.9498   -8.2185    0.0000 C   0  0  0  0  0  0  0  0  0  0  0  0
   -6.6905   -6.9984    0.0000 C   0  0  0  0  0  0  0  0  0  0  0  0
   -0.4881    0.0652    0.0000 C   0  0  0  0  0  0  0  0  0  0  0  0
    3.4089    0.8152    0.0000 C   0  0  0  0  0  0  0  0  0  0  0  0
    4.7080   -1.4347    0.0000 C   0  0  0  0  0  0  0  0  0  0  0  0
    4.7080    0.0652    0.0000 C   0  0  0  0  0  0  0  0  0  0  0  0
   -4.5891    3.0479    0.0000 C   0  0  0  0  0  0  0  0  0  0  0  0
   -4.9009    4.5149    0.0000 C   0  0  0  0  0  0  0  0  0  0  0  0
   -3.7862    5.5187    0.0000 C   0  0  0  0  0  0  0  0  0  0  0  0
  1 15  2  0  0  0  0
  2 16  2  0  0  0  0
  3 23  1  0  0  0  0
  3 34  1  0  0  0  0
  4 36  2  0  0  0  0
  5 36  1  0  0  0  0
  6  7  1  0  0  0  0
  6  9  1  0  0  0  0
  6 12  1  0  0  0  0
  7 10  2  0  0  0  0
  8  9  1  0  0  0  0
  8 15  1  0  0  0  0
  9 11  2  0  0  0  0
 10 11  1  0  0  0  0
 10 13  1  0  0  0  0
 12 19  2  0  0  0  0
 12 20  1  0  0  0  0
 13 27  1  0  0  0  0
 13 28  1  0  0  0  0
 13 29  1  0  0  0  0
 14 16  1  0  0  0  0
 14 17  1  0  0  0  0
 14 21  2  0  0  0  0
 15 16  1  0  0  0  0
 17 18  1  0  0  0  0
 17 22  2  0  0  0  0
 18 26  1  0  0  0  0
 18 31  2  0  0  0  0
 19 24  1  0  0  0  0
 20 25  2  0  0  0  0
 21 30  1  0  0  0  0
 22 32  1  0  0  0  0
 23 24  2  0  0  0  0
 23 25  1  0  0  0  0
 26 30  2  0  0  0  0
 31 33  1  0  0  0  0
 32 33  2  0  0  0  0
 34 35  1  0  0  0  0
 35 36  1  0  0  0  0
M  END
> <Value>
5.300000202445418

> <Relation>
<

> <SourceURI>
mol:CHEMBL2003689

$$$$

Generated by Molecular Materials Informatics

 27 30  0  0  0  0  0  0  0  0999 V2000
    0.7929    2.3310    0.0000 N   0  0  0  0  0  0  0  0  0  0  0  0
   -3.6087   -1.0317    0.0000 N   0  0  0  0  0  0  0  0  0  0  0  0
    0.8695   -4.0639    0.0000 N   0  0  0  0  0  0  0  0  0  0  0  0
   -6.3900   -9.5912    0.0000 N   0  0  0  0  0  0  0  0  0  0  0  0
    0.7929   -0.0961    0.0000 C   0  0  0  0  0  0  0  0  0  0  0  0
    2.2195    0.3676    0.0000 C   0  0  0  0  0  0  0  0  0  0  0  0
    2.2195    1.8676    0.0000 C   0  0  0  0  0  0  0  0  0  0  0  0
    0.3295   -1.5226    0.0000 C   0  0  0  0  0  0  0  0  0  0  0  0
   -0.0887    1.1176    0.0000 C   0  0  0  0  0  0  0  0  0  0  0  0
   -1.1378   -1.8344    0.0000 C   0  0  0  0  0  0  0  0  0  0  0  0
    3.5185   -0.3824    0.0000 C   0  0  0  0  0  0  0  0  0  0  0  0
    3.5185    2.6176    0.0000 C   0  0  0  0  0  0  0  0  0  0  0  0
   -1.6015   -3.2612    0.0000 C   0  0  0  0  0  0  0  0  0  0  0  0
    1.3331   -2.6373    0.0000 C   0  0  0  0  0  0  0  0  0  0  0  0
   -2.1416   -0.7197    0.0000 C   0  0  0  0  0  0  0  0  0  0  0  0
    4.8176    0.3676    0.0000 C   0  0  0  0  0  0  0  0  0  0  0  0
   -3.0685   -3.5730    0.0000 C   0  0  0  0  0  0  0  0  0  0  0  0
    4.8176    1.8676    0.0000 C   0  0  0  0  0  0  0  0  0  0  0  0
    0.3295    3.7576    0.0000 C   0  0  0  0  0  0  0  0  0  0  0  0
   -4.0724   -2.4583    0.0000 C   0  0  0  0  0  0  0  0  0  0  0  0
   -3.5322   -4.9995    0.0000 C   0  0  0  0  0  0  0  0  0  0  0  0
   -4.9993   -5.3113    0.0000 C   0  0  0  0  0  0  0  0  0  0  0  0
   -5.4629   -6.7379    0.0000 C   0  0  0  0  0  0  0  0  0  0  0  0
   -6.9302   -7.0499    0.0000 C   0  0  0  0  0  0  0  0  0  0  0  0
   -4.4591   -7.8526    0.0000 C   0  0  0  0  0  0  0  0  0  0  0  0
   -7.3936   -8.4764    0.0000 C   0  0  0  0  0  0  0  0  0  0  0  0
   -4.9227   -9.2794    0.0000 C   0  0  0  0  0  0  0  0  0  0  0  0
  1  7  1  0  0  0  0
  1  9  1  0  0  0  0
  1 19  1  0  0  0  0
  2 15  1  0  0  0  0
  2 20  2  0  0  0  0
  3 14  1  0  0  0  0
  4 26  2  0  0  0  0
  4 27  1  0  0  0  0
  5  6  1  0  0  0  0
  5  8  1  0  0  0  0
  5  9  2  0  0  0  0
  6  7  1  0  0  0  0
  6 11  2  0  0  0  0
  7 12  2  0  0  0  0
  8 10  1  0  0  0  0
  8 14  1  0  0  0  0
 10 13  1  0  0  0  0
 10 15  2  0  0  0  0
 11 16  1  0  0  0  0
 12 18  1  0  0  0  0
 13 17  2  0  0  0  0
 16 18  2  0  0  0  0
 17 20  1  0  0  0  0
 21 17  1  0  0  0  0
 21 22  2  0  0  0  0
 22 23  1  0  0  0  0
 23 24  2  0  0  0  0
 23 25  1  0  0  0  0
 24 26  1  0  0  0  0
 25 27  2  0  0  0  0
M  END
> <Value>
5.899998417198648

> <Relation>
<

> <SourceURI>
mol:CHEMBL1979357

$$$$

Generated by Molecular Materials Informatics

 27 29  0  0  0  0  0  0  0  0999 V2000
   -0.8738   -1.3195    0.0000 Cl  0  0  0  0  0  0  0  0  0  0  0  0
    6.9822    3.7832    0.0000 O   0  0  0  0  0  0  0  0  0  0  0  0
    3.0543    3.2162    0.0000 O   0  0  0  0  0  0  0  0  0  0  0  0
    3.5452   -2.1699    0.0000 O   0  0  0  0  0  0  0  0  0  0  0  0
    6.0002    6.6179    0.0000 O   0  0  0  0  0  0  0  0  0  0  0  0
    3.0543    7.1849    0.0000 O   0  0  0  0  0  0  0  0  0  0  0  0
    6.4913    1.2318    0.0000 N   0  0  0  0  0  0  0  0  0  0  0  0
    4.0363    0.3815    0.0000 N   0  0  0  0  0  0  0  0  0  0  0  0
    6.0002   -1.3195    0.0000 N   0  0  0  0  0  0  0  0  0  0  0  0
    9.4372    0.6649    0.0000 N   0  0  0  0  0  0  0  0  0  0  0  0
   10.9103    4.3501    0.0000 N   0  0  0  0  0  0  0  0  0  0  0  0
    7.4733    2.3659    0.0000 C   0  0  0  0  0  0  0  0  0  0  0  0
    2.5632    0.6649    0.0000 C   0  0  0  0  0  0  0  0  0  0  0  0
    6.9822   -0.1855    0.0000 C   0  0  0  0  0  0  0  0  0  0  0  0
    8.9462    2.0822    0.0000 C   0  0  0  0  0  0  0  0  0  0  0  0
    2.0723    2.0822    0.0000 C   0  0  0  0  0  0  0  0  0  0  0  0
    4.5272   -1.0360    0.0000 C   0  0  0  0  0  0  0  0  0  0  0  0
    8.4553   -0.4691    0.0000 C   0  0  0  0  0  0  0  0  0  0  0  0
    1.5812   -0.4691    0.0000 C   0  0  0  0  0  0  0  0  0  0  0  0
    0.5992    2.3659    0.0000 C   0  0  0  0  0  0  0  0  0  0  0  0
    0.1082   -0.1855    0.0000 C   0  0  0  0  0  0  0  0  0  0  0  0
    5.0182    5.4841    0.0000 C   0  0  0  0  0  0  0  0  0  0  0  0
    3.5452    5.7676    0.0000 C   0  0  0  0  0  0  0  0  0  0  0  0
    5.5093    4.0666    0.0000 C   0  0  0  0  0  0  0  0  0  0  0  0
   -0.3829    1.2318    0.0000 C   0  0  0  0  0  0  0  0  0  0  0  0
    2.5632    4.6335    0.0000 C   0  0  0  0  0  0  0  0  0  0  0  0
    9.9283    3.2162    0.0000 C   0  0  0  0  0  0  0  0  0  0  0  0
  1 21  1  0  0  0  0
  2 12  1  0  0  0  0
  2 24  1  0  0  0  0
  3 16  1  0  0  0  0
  3 26  1  0  0  0  0
  4 17  2  0  0  0  0
  5 22  1  0  0  0  0
  6 23  1  0  0  0  0
  7 12  2  0  0  0  0
  7 14  1  0  0  0  0
  8 13  1  0  0  0  0
  8 17  1  0  0  0  0
  9 14  1  0  0  0  0
  9 17  1  0  0  0  0
 10 15  2  0  0  0  0
 10 18  1  0  0  0  0
 11 27  3  0  0  0  0
 12 15  1  0  0  0  0
 13 16  1  0  0  0  0
 13 19  2  0  0  0  0
 14 18  2  0  0  0  0
 15 27  1  0  0  0  0
 16 20  2  0  0  0  0
 19 21  1  0  0  0  0
 20 25  1  0  0  0  0
 21 25  2  0  0  0  0
 22 23  1  0  0  0  0
 22 24  1  0  0  0  0
 23 26  1  0  0  0  0
M  END
> <Value>
5.899998417198648

> <Relation>
<

> <SourceURI>
mol:CHEMBL1980802

$$$$

Generated by Molecular Materials Informatics

 38 41  0  0  0  0  0  0  0  0999 V2000
    1.9296    0.8443    0.0000 S   0  0  0  0  0  0  0  0  0  0  0  0
   -1.0291   15.9407    0.0000 F   0  0  0  0  0  0  0  0  0  0  0  0
    0.5478   -3.7079    0.0000 O   0  0  0  0  0  0  0  0  0  0  0  0
    0.4000    9.2169    0.0000 O   0  0  0  0  0  0  0  0  0  0  0  0
   -2.3982   -0.3061    0.0000 N   0  0  0  0  0  0  0  0  0  0  0  0
   -2.8891    2.2452    0.0000 N   0  0  0  0  0  0  0  0  0  0  0  0
    2.5116   -2.0070    0.0000 N   0  0  0  0  0  0  0  0  0  0  0  0
   -1.9935    8.2064    0.0000 N   0  0  0  0  0  0  0  0  0  0  0  0
   -1.6720   10.7844    0.0000 N   0  0  0  0  0  0  0  0  0  0  0  0
    7.4215   -3.7079    0.0000 N   0  0  0  0  0  0  0  0  0  0  0  0
   -0.4342    1.3946    0.0000 C   0  0  0  0  0  0  0  0  0  0  0  0
    0.5478    0.2608    0.0000 C   0  0  0  0  0  0  0  0  0  0  0  0
    0.3407    2.6790    0.0000 C   0  0  0  0  0  0  0  0  0  0  0  0
    0.0567   -1.1566    0.0000 C   0  0  0  0  0  0  0  0  0  0  0  0
   -1.9073    1.1112    0.0000 C   0  0  0  0  0  0  0  0  0  0  0  0
   -0.2428    4.0608    0.0000 C   0  0  0  0  0  0  0  0  0  0  0  0
    1.8016    2.3388    0.0000 C   0  0  0  0  0  0  0  0  0  0  0  0
   -1.4162   -1.4401    0.0000 C   0  0  0  0  0  0  0  0  0  0  0  0
    1.0387   -2.2904    0.0000 C   0  0  0  0  0  0  0  0  0  0  0  0
   -1.7313    4.2464    0.0000 C   0  0  0  0  0  0  0  0  0  0  0  0
    0.6621    5.2571    0.0000 C   0  0  0  0  0  0  0  0  0  0  0  0
   -1.4098    6.8246    0.0000 C   0  0  0  0  0  0  0  0  0  0  0  0
   -2.3147    5.6282    0.0000 C   0  0  0  0  0  0  0  0  0  0  0  0
    0.0785    6.6389    0.0000 C   0  0  0  0  0  0  0  0  0  0  0  0
    3.4936   -3.1408    0.0000 C   0  0  0  0  0  0  0  0  0  0  0  0
   -1.0884    9.4025    0.0000 C   0  0  0  0  0  0  0  0  0  0  0  0
   -0.7671   11.9807    0.0000 C   0  0  0  0  0  0  0  0  0  0  0  0
    4.9666   -2.8573    0.0000 C   0  0  0  0  0  0  0  0  0  0  0  0
   -1.3506   13.3625    0.0000 C   0  0  0  0  0  0  0  0  0  0  0  0
    0.7214   11.7951    0.0000 C   0  0  0  0  0  0  0  0  0  0  0  0
   -0.4457   14.5587    0.0000 C   0  0  0  0  0  0  0  0  0  0  0  0
    5.9486   -3.9913    0.0000 C   0  0  0  0  0  0  0  0  0  0  0  0
    1.6263   12.9914    0.0000 C   0  0  0  0  0  0  0  0  0  0  0  0
    1.0429   14.3732    0.0000 C   0  0  0  0  0  0  0  0  0  0  0  0
    8.4035   -4.8417    0.0000 C   0  0  0  0  0  0  0  0  0  0  0  0
    7.9124   -2.2904    0.0000 C   0  0  0  0  0  0  0  0  0  0  0  0
    9.8764   -4.5582    0.0000 C   0  0  0  0  0  0  0  0  0  0  0  0
    9.3855   -2.0070    0.0000 C   0  0  0  0  0  0  0  0  0  0  0  0
  1 12  1  0  0  0  0
  1 17  1  0  0  0  0
  2 31  1  0  0  0  0
  3 19  2  0  0  0  0
  4 26  2  0  0  0  0
  5 15  2  0  0  0  0
  5 18  1  0  0  0  0
  6 15  1  0  0  0  0
  7 19  1  0  0  0  0
  7 25  1  0  0  0  0
  8 22  1  0  0  0  0
  8 26  1  0  0  0  0
  9 26  1  0  0  0  0
  9 27  1  0  0  0  0
 10 32  1  0  0  0  0
 10 35  1  0  0  0  0
 10 36  1  0  0  0  0
 11 12  2  0  0  0  0
 11 13  1  0  0  0  0
 11 15  1  0  0  0  0
 12 14  1  0  0  0  0
 13 16  1  0  0  0  0
 13 17  2  0  0  0  0
 14 18  2  0  0  0  0
 14 19  1  0  0  0  0
 16 20  2  0  0  0  0
 16 21  1  0  0  0  0
 20 23  1  0  0  0  0
 21 24  2  0  0  0  0
 22 23  2  0  0  0  0
 22 24  1  0  0  0  0
 25 28  1  0  0  0  0
 27 29  1  0  0  0  0
 27 30  2  0  0  0  0
 28 32  1  0  0  0  0
 29 31  2  0  0  0  0
 30 33  1  0  0  0  0
 31 34  1  0  0  0  0
 33 34  2  0  0  0  0
 35 37  1  0  0  0  0
 36 38  1  0  0  0  0
M  END
> <Value>
5.300000202445418

> <Relation>
<

> <SourceURI>
mol:CHEMBL1996649

$$$$

Generated by Molecular Materials Informatics

 20 22  0  0  0  0  0  0  0  0999 V2000
    0.6730    2.4098    0.0000 O   0  0  0  0  0  0  0  0  0  0  0  0
   -4.3388    2.6634    0.0000 N   0  0  0  0  0  0  0  0  0  0  0  0
   -3.2240    0.1598    0.0000 N   0  0  0  0  0  0  0  0  0  0  0  0
   -0.6261    0.1598    0.0000 N   0  0  0  0  0  0  0  0  0  0  0  0
   -1.9251    2.4098    0.0000 C   0  0  0  0  0  0  0  0  0  0  0  0
   -2.2370    3.8770    0.0000 C   0  0  0  0  0  0  0  0  0  0  0  0
   -3.2240    1.6598    0.0000 C   0  0  0  0  0  0  0  0  0  0  0  0
   -0.6261    1.6598    0.0000 C   0  0  0  0  0  0  0  0  0  0  0  0
   -1.2333    4.9917    0.0000 C   0  0  0  0  0  0  0  0  0  0  0  0
   -3.7288    4.0338    0.0000 C   0  0  0  0  0  0  0  0  0  0  0  0
   -1.9251   -0.5902    0.0000 C   0  0  0  0  0  0  0  0  0  0  0  0
   -1.6968    6.4183    0.0000 C   0  0  0  0  0  0  0  0  0  0  0  0
    0.2339    4.6798    0.0000 C   0  0  0  0  0  0  0  0  0  0  0  0
   -0.6931    7.5330    0.0000 C   0  0  0  0  0  0  0  0  0  0  0  0
    1.2376    5.7945    0.0000 C   0  0  0  0  0  0  0  0  0  0  0  0
    1.9719    1.6598    0.0000 C   0  0  0  0  0  0  0  0  0  0  0  0
    0.7741    7.2212    0.0000 C   0  0  0  0  0  0  0  0  0  0  0  0
    3.2710    2.4098    0.0000 C   0  0  0  0  0  0  0  0  0  0  0  0
    4.5701    1.6598    0.0000 C   0  0  0  0  0  0  0  0  0  0  0  0
    5.8692    2.4098    0.0000 C   0  0  0  0  0  0  0  0  0  0  0  0
  1  8  1  0  0  0  0
  1 16  1  0  0  0  0
  2  7  1  0  0  0  0
  2 10  1  0  0  0  0
  3  7  1  0  0  0  0
  3 11  2  0  0  0  0
  4  8  2  0  0  0  0
  4 11  1  0  0  0  0
  5  6  1  0  0  0  0
  5  7  2  0  0  0  0
  5  8  1  0  0  0  0
  6  9  1  0  0  0  0
  6 10  2  0  0  0  0
  9 12  2  0  0  0  0
  9 13  1  0  0  0  0
 12 14  1  0  0  0  0
 13 15  2  0  0  0  0
 14 17  2  0  0  0  0
 15 17  1  0  0  0  0
 16 18  1  0  0  0  0
 18 19  1  0  0  0  0
 19 20  1  0  0  0  0
M  END
> <Value>
5.899998417198648

> <Relation>
<

> <SourceURI>
mol:CHEMBL1996817

$$$$

Generated by Molecular Materials Informatics

 26 29  0  0  0  0  0  0  0  0999 V2000
    1.8700    3.4574    0.0000 Cl  0  0  0  0  0  0  0  0  0  0  0  0
    1.8700    8.6534    0.0000 Cl  0  0  0  0  0  0  0  0  0  0  0  0
    6.6806   -2.2768    0.0000 O   0  0  0  0  0  0  0  0  0  0  0  0
    7.6179    1.2211    0.0000 O   0  0  0  0  0  0  0  0  0  0  0  0
    3.1827   -1.3396    0.0000 N   0  0  0  0  0  0  0  0  0  0  0  0
    4.1200    2.1583    0.0000 N   0  0  0  0  0  0  0  0  0  0  0  0
   -2.1408    1.3740    0.0000 N   0  0  0  0  0  0  0  0  0  0  0  0
   -3.0224    0.1604    0.0000 N   0  0  0  0  0  0  0  0  0  0  0  0
    4.4818   -0.5896    0.0000 C   0  0  0  0  0  0  0  0  0  0  0  0
    4.8699    0.8593    0.0000 C   0  0  0  0  0  0  0  0  0  0  0  0
    5.9306   -0.9778    0.0000 C   0  0  0  0  0  0  0  0  0  0  0  0
    6.3188    0.4711    0.0000 C   0  0  0  0  0  0  0  0  0  0  0  0
    1.8839   -0.5896    0.0000 C   0  0  0  0  0  0  0  0  0  0  0  0
   -0.7142   -0.5896    0.0000 C   0  0  0  0  0  0  0  0  0  0  0  0
   -0.7142    0.9104    0.0000 C   0  0  0  0  0  0  0  0  0  0  0  0
    0.5848   -1.3396    0.0000 C   0  0  0  0  0  0  0  0  0  0  0  0
    4.8699    3.4574    0.0000 C   0  0  0  0  0  0  0  0  0  0  0  0
    1.8839    0.9104    0.0000 C   0  0  0  0  0  0  0  0  0  0  0  0
    4.1200    4.7563    0.0000 C   0  0  0  0  0  0  0  0  0  0  0  0
    0.5848    1.6603    0.0000 C   0  0  0  0  0  0  0  0  0  0  0  0
   -2.1408   -1.0530    0.0000 C   0  0  0  0  0  0  0  0  0  0  0  0
    2.6200    4.7563    0.0000 C   0  0  0  0  0  0  0  0  0  0  0  0
    4.8699    6.0553    0.0000 C   0  0  0  0  0  0  0  0  0  0  0  0
    1.8700    6.0553    0.0000 C   0  0  0  0  0  0  0  0  0  0  0  0
    2.6200    7.3544    0.0000 C   0  0  0  0  0  0  0  0  0  0  0  0
    4.1200    7.3544    0.0000 C   0  0  0  0  0  0  0  0  0  0  0  0
  1 22  1  0  0  0  0
  2 25  1  0  0  0  0
  3 11  2  0  0  0  0
  4 12  2  0  0  0  0
  5  9  1  0  0  0  0
  5 13  1  0  0  0  0
  6 10  1  0  0  0  0
  6 17  1  0  0  0  0
  7  8  1  0  0  0  0
  7 15  1  0  0  0  0
  8 21  2  0  0  0  0
  9 10  2  0  0  0  0
  9 11  1  0  0  0  0
 10 12  1  0  0  0  0
 11 12  1  0  0  0  0
 13 16  1  0  0  0  0
 13 18  2  0  0  0  0
 14 15  1  0  0  0  0
 14 16  2  0  0  0  0
 14 21  1  0  0  0  0
 15 20  2  0  0  0  0
 17 19  1  0  0  0  0
 18 20  1  0  0  0  0
 19 22  1  0  0  0  0
 19 23  2  0  0  0  0
 22 24  2  0  0  0  0
 23 26  1  0  0  0  0
 24 25  1  0  0  0  0
 25 26  2  0  0  0  0
M  END
> <Value>
5.899998417198648

> <Relation>
<

> <SourceURI>
mol:CHEMBL1979554

$$$$

Generated by Molecular Materials Informatics

 26 28  0  0  0  0  0  0  0  0999 V2000
   -3.8519  -10.2188    0.0000 F   0  0  0  0  0  0  0  0  0  0  0  0
   -2.3519   -8.7188    0.0000 F   0  0  0  0  0  0  0  0  0  0  0  0
   -5.3519   -8.7188    0.0000 F   0  0  0  0  0  0  0  0  0  0  0  0
   -2.5528   -1.9687    0.0000 O   0  0  0  0  0  0  0  0  0  0  0  0
   -2.5528   -6.4687    0.0000 N   0  0  0  0  0  0  0  0  0  0  0  0
    0.0452   -1.9687    0.0000 N   0  0  0  0  0  0  0  0  0  0  0  0
    0.0452    2.5312    0.0000 N   0  0  0  0  0  0  0  0  0  0  0  0
   -1.2539   -4.2188    0.0000 N   0  0  0  0  0  0  0  0  0  0  0  0
    1.3443    0.2812    0.0000 C   0  0  0  0  0  0  0  0  0  0  0  0
    0.0452   -0.4688    0.0000 C   0  0  0  0  0  0  0  0  0  0  0  0
    1.3443    1.7812    0.0000 C   0  0  0  0  0  0  0  0  0  0  0  0
   -3.8519   -7.2188    0.0000 C   0  0  0  0  0  0  0  0  0  0  0  0
   -3.8519   -8.7188    0.0000 C   0  0  0  0  0  0  0  0  0  0  0  0
   -2.5528   -4.9688    0.0000 C   0  0  0  0  0  0  0  0  0  0  0  0
    2.6432   -0.4688    0.0000 C   0  0  0  0  0  0  0  0  0  0  0  0
    2.6432    2.5312    0.0000 C   0  0  0  0  0  0  0  0  0  0  0  0
   -1.2539   -2.7188    0.0000 C   0  0  0  0  0  0  0  0  0  0  0  0
   -1.2539    0.2812    0.0000 C   0  0  0  0  0  0  0  0  0  0  0  0
    3.9423    1.7812    0.0000 C   0  0  0  0  0  0  0  0  0  0  0  0
   -5.1510   -6.4687    0.0000 C   0  0  0  0  0  0  0  0  0  0  0  0
    3.9423    0.2812    0.0000 C   0  0  0  0  0  0  0  0  0  0  0  0
   -1.2539    1.7812    0.0000 C   0  0  0  0  0  0  0  0  0  0  0  0
   -3.8519   -4.2188    0.0000 C   0  0  0  0  0  0  0  0  0  0  0  0
   -5.1510   -4.9688    0.0000 C   0  0  0  0  0  0  0  0  0  0  0  0
    5.2414    2.5312    0.0000 C   0  0  0  0  0  0  0  0  0  0  0  0
    5.2414    4.0312    0.0000 C   0  0  0  0  0  0  0  0  0  0  0  0
  1 13  1  0  0  0  0
  2 13  1  0  0  0  0
  3 13  1  0  0  0  0
  4 17  2  0  0  0  0
  5 12  2  0  0  0  0
  5 14  1  0  0  0  0
  6 10  1  0  0  0  0
  6 17  1  0  0  0  0
  7 11  1  0  0  0  0
  7 22  2  0  0  0  0
  8 14  1  0  0  0  0
  8 17  1  0  0  0  0
  9 10  1  0  0  0  0
  9 11  1  0  0  0  0
  9 15  2  0  0  0  0
 10 18  2  0  0  0  0
 11 16  2  0  0  0  0
 12 13  1  0  0  0  0
 12 20  1  0  0  0  0
 14 23  2  0  0  0  0
 15 21  1  0  0  0  0
 16 19  1  0  0  0  0
 18 22  1  0  0  0  0
 19 21  2  0  0  0  0
 19 25  1  0  0  0  0
 20 24  2  0  0  0  0
 23 24  1  0  0  0  0
 25 26  1  0  0  0  0
M  END
> <Value>
5.300000202445418

> <Relation>
<

> <SourceURI>
mol:CHEMBL1986756

$$$$

Generated by Molecular Materials Informatics

 26 27  0  0  0  0  0  0  0  0999 V2000
    2.1307   -4.2750    0.0000 S   0  0  0  0  0  0  0  0  0  0  0  0
   -1.7664    8.4750    0.0000 O   0  0  0  0  0  0  0  0  0  0  0  0
    2.1307    4.7250    0.0000 O   0  0  0  0  0  0  0  0  0  0  0  0
    2.1307   -5.7750    0.0000 O   0  0  0  0  0  0  0  0  0  0  0  0
    3.6307   -4.2750    0.0000 O   0  0  0  0  0  0  0  0  0  0  0  0
   -0.4675    6.2250    0.0000 N   0  0  0  0  0  0  0  0  0  0  0  0
    0.8316    2.4750    0.0000 N   0  0  0  0  0  0  0  0  0  0  0  0
   -4.3645    3.9750    0.0000 N   0  0  0  0  0  0  0  0  0  0  0  0
    0.6307   -4.2750    0.0000 N   0  0  0  0  0  0  0  0  0  0  0  0
   -5.6636    7.7250    0.0000 N   0  0  0  0  0  0  0  0  0  0  0  0
   -3.0654    6.2250    0.0000 C   0  0  0  0  0  0  0  0  0  0  0  0
   -0.4675    4.7250    0.0000 C   0  0  0  0  0  0  0  0  0  0  0  0
   -1.7664    6.9750    0.0000 C   0  0  0  0  0  0  0  0  0  0  0  0
   -3.0654    4.7250    0.0000 C   0  0  0  0  0  0  0  0  0  0  0  0
   -1.7664    3.9750    0.0000 C   0  0  0  0  0  0  0  0  0  0  0  0
    0.8316    3.9750    0.0000 C   0  0  0  0  0  0  0  0  0  0  0  0
    2.1307   -2.7750    0.0000 C   0  0  0  0  0  0  0  0  0  0  0  0
    2.1307    0.2250    0.0000 C   0  0  0  0  0  0  0  0  0  0  0  0
   -4.3645    6.9750    0.0000 C   0  0  0  0  0  0  0  0  0  0  0  0
    0.8316   -2.0250    0.0000 C   0  0  0  0  0  0  0  0  0  0  0  0
    3.4296   -2.0250    0.0000 C   0  0  0  0  0  0  0  0  0  0  0  0
    2.1307    1.7250    0.0000 C   0  0  0  0  0  0  0  0  0  0  0  0
    0.8316   -0.5250    0.0000 C   0  0  0  0  0  0  0  0  0  0  0  0
    3.4296   -0.5250    0.0000 C   0  0  0  0  0  0  0  0  0  0  0  0
   -3.0654    9.2250    0.0000 C   0  0  0  0  0  0  0  0  0  0  0  0
   -3.0654   10.7250    0.0000 C   0  0  0  0  0  0  0  0  0  0  0  0
  1  4  2  0  0  0  0
  1  5  2  0  0  0  0
  1  9  1  0  0  0  0
  1 17  1  0  0  0  0
  2 13  1  0  0  0  0
  2 25  1  0  0  0  0
  3 16  2  0  0  0  0
  6 12  1  0  0  0  0
  6 13  2  0  0  0  0
  7 16  1  0  0  0  0
  7 22  1  0  0  0  0
  8 14  1  0  0  0  0
 10 19  3  0  0  0  0
 11 13  1  0  0  0  0
 11 14  2  0  0  0  0
 11 19  1  0  0  0  0
 12 15  2  0  0  0  0
 12 16  1  0  0  0  0
 14 15  1  0  0  0  0
 17 20  2  0  0  0  0
 17 21  1  0  0  0  0
 18 22  1  0  0  0  0
 18 23  2  0  0  0  0
 18 24  1  0  0  0  0
 20 23  1  0  0  0  0
 21 24  2  0  0  0  0
 25 26  1  0  0  0  0
M  END
> <Value>
5.899998417198648

> <Relation>
<

> <SourceURI>
mol:CHEMBL2004355

$$$$

Generated by Molecular Materials Informatics

 37 41  0  0  0  0  0  0  0  0999 V2000
    3.7581    3.9617    0.0000 C   0  0  0  0  0  0  0  0  0  0  0  0
    4.9308    4.8969    0.0000 C   0  0  0  0  0  0  0  0  0  0  0  0
    6.3271    4.3490    0.0000 C   0  0  0  0  0  0  0  0  0  0  0  0
    6.5506    2.8657    0.0000 C   0  0  0  0  0  0  0  0  0  0  0  0
    5.3779    1.9306    0.0000 C   0  0  0  0  0  0  0  0  0  0  0  0
    3.9817    2.4786    0.0000 C   0  0  0  0  0  0  0  0  0  0  0  0
    2.8090    1.5433    0.0000 C   0  0  0  0  0  0  0  0  0  0  0  0
    3.1426    0.0810    0.0000 C   0  0  0  0  0  0  0  0  0  0  0  0
    2.3617    4.5099    0.0000 O   0  0  0  0  0  0  0  0  0  0  0  0
    1.1890    3.5746    0.0000 C   0  0  0  0  0  0  0  0  0  0  0  0
    4.2386   -2.7117    0.0000 C   0  0  0  0  0  0  0  0  0  0  0  0
    5.1739   -1.5390    0.0000 C   0  0  0  0  0  0  0  0  0  0  0  0
    4.6259   -0.1427    0.0000 C   0  0  0  0  0  0  0  0  0  0  0  0
    2.2075   -1.0917    0.0000 C   0  0  0  0  0  0  0  0  0  0  0  0
    2.7555   -2.4881    0.0000 C   0  0  0  0  0  0  0  0  0  0  0  0
    6.6571   -1.7625    0.0000 Cl  0  0  0  0  0  0  0  0  0  0  0  0
    1.4575    2.1941    0.0000 N   0  0  0  0  0  0  0  0  0  0  0  0
    0.7075   -1.0917    0.0000 C   0  0  0  0  0  0  0  0  0  0  0  0
   -0.2277    0.0810    0.0000 C   0  0  0  0  0  0  0  0  0  0  0  0
    0.1061    1.5433    0.0000 C   0  0  0  0  0  0  0  0  0  0  0  0
    0.1594   -2.4881    0.0000 N   0  0  0  0  0  0  0  0  0  0  0  0
   -1.7110   -0.1427    0.0000 C   0  0  0  0  0  0  0  0  0  0  0  0
   -2.2590   -1.5390    0.0000 N   0  0  0  0  0  0  0  0  0  0  0  0
   -1.3237   -2.7117    0.0000 C   0  0  0  0  0  0  0  0  0  0  0  0
   -1.8717   -4.1079    0.0000 N   0  0  0  0  0  0  0  0  0  0  0  0
   -3.3550   -4.3315    0.0000 C   0  0  0  0  0  0  0  0  0  0  0  0
   -4.2903   -3.1588    0.0000 C   0  0  0  0  0  0  0  0  0  0  0  0
   -3.9030   -5.7279    0.0000 C   0  0  0  0  0  0  0  0  0  0  0  0
   -5.3862   -5.9514    0.0000 C   0  0  0  0  0  0  0  0  0  0  0  0
   -6.3215   -4.7786    0.0000 C   0  0  0  0  0  0  0  0  0  0  0  0
   -5.7735   -3.3825    0.0000 C   0  0  0  0  0  0  0  0  0  0  0  0
   -5.9342   -7.3477    0.0000 O   0  0  0  0  0  0  0  0  0  0  0  0
   -7.8048   -5.0023    0.0000 C   0  0  0  0  0  0  0  0  0  0  0  0
    5.6015    0.4473    0.0000 F   0  0  0  0  0  0  0  0  0  0  0  0
   -7.4175   -7.5713    0.0000 C   0  0  0  0  0  0  0  0  0  0  0  0
   -8.3528   -6.3986    0.0000 O   0  0  0  0  0  0  0  0  0  0  0  0
   -8.7400   -3.8296    0.0000 O   0  0  0  0  0  0  0  0  0  0  0  0
  1  2  2  0  0  0  0
  1  6  1  0  0  0  0
  1  9  1  0  0  0  0
  2  3  1  0  0  0  0
  3  4  2  0  0  0  0
  4  5  1  0  0  0  0
  5  6  2  0  0  0  0
  6  7  1  0  0  0  0
  7  8  1  0  0  0  0
  9 10  1  0  0  0  0
 13  8  1  0  0  0  0
  8 14  2  0  0  0  0
 11 12  1  0  0  0  0
 11 15  2  0  0  0  0
 12 13  2  0  0  0  0
 14 15  1  0  0  0  0
 12 16  1  0  0  0  0
  7 17  2  0  0  0  0
 14 18  1  0  0  0  0
 17 20  1  0  0  0  0
 20 19  1  0  0  0  0
 19 22  1  0  0  0  0
 18 19  2  0  0  0  0
 21 18  1  0  0  0  0
 21 24  2  0  0  0  0
 22 23  2  0  0  0  0
 23 24  1  0  0  0  0
 24 25  1  0  0  0  0
 25 26  1  0  0  0  0
 27 26  1  0  0  0  0
 26 28  2  0  0  0  0
 27 31  2  0  0  0  0
 28 29  1  0  0  0  0
 29 30  2  0  0  0  0
 30 31  1  0  0  0  0
 29 32  1  0  0  0  0
 30 33  1  0  0  0  0
  5 34  1  0  0  0  0
 32 35  1  0  0  0  0
 33 36  2  0  0  0  0
 33 37  1  0  0  0  0
M  END
> <Value>
5.499999678657065

> <Relation>
<

> <SourceURI>
mol:CHEMBL483158

$$$$

Generated by Molecular Materials Informatics

 19 21  0  0  0  0  0  0  0  0999 V2000
   -5.0528    1.7541    0.0000 C   0  0  0  0  0  0  0  0  0  0  0  0
   -5.0528    0.2541    0.0000 C   0  0  0  0  0  0  0  0  0  0  0  0
   -3.7583   -0.4883    0.0000 C   0  0  0  0  0  0  0  0  0  0  0  0
   -3.7583    2.5117    0.0000 C   0  0  0  0  0  0  0  0  0  0  0  0
   -2.4638    1.7541    0.0000 C   0  0  0  0  0  0  0  0  0  0  0  0
   -2.4618    0.2541    0.0000 C   0  0  0  0  0  0  0  0  0  0  0  0
   -1.1690   -0.4901    0.0000 N   0  0  0  0  0  0  0  0  0  0  0  0
   -1.1729    2.5099    0.0000 C   0  0  0  0  0  0  0  0  0  0  0  0
    0.1282    1.7574    0.0000 C   0  0  0  0  0  0  0  0  0  0  0  0
    0.1264    0.2504    0.0000 C   0  0  0  0  0  0  0  0  0  0  0  0
    1.5590   -0.2170    0.0000 N   0  0  0  0  0  0  0  0  0  0  0  0
    2.4464    1.0012    0.0000 O   0  0  0  0  0  0  0  0  0  0  0  0
    1.5621    2.2212    0.0000 C   0  0  0  0  0  0  0  0  0  0  0  0
   -6.3541    2.5003    0.0000 F   0  0  0  0  0  0  0  0  0  0  0  0
   -6.3508   -0.4977    0.0000 Cl  0  0  0  0  0  0  0  0  0  0  0  0
   -1.1712   -1.9901    0.0000 C   0  0  0  0  0  0  0  0  0  0  0  0
    0.1266   -2.7421    0.0000 C   0  0  0  0  0  0  0  0  0  0  0  0
    2.0271    3.6472    0.0000 O   0  0  0  0  0  0  0  0  0  0  0  0
   -1.1769    4.0099    0.0000 O   0  0  0  0  0  0  0  0  0  0  0  0
  9 10  2  0  0  0  0
  3  6  2  0  0  0  0
  5  4  2  0  0  0  0
  5  6  1  0  0  0  0
  1  2  2  0  0  0  0
 10 11  1  0  0  0  0
 11 12  1  0  0  0  0
 12 13  1  0  0  0  0
 13  9  1  0  0  0  0
  1  4  1  0  0  0  0
  1 14  1  0  0  0  0
  2  3  1  0  0  0  0
  2 15  1  0  0  0  0
  5  8  1  0  0  0  0
  7 16  1  0  0  0  0
  6  7  1  0  0  0  0
 16 17  1  0  0  0  0
  7 10  1  0  0  0  0
 13 18  2  0  0  0  0
  9  8  1  0  0  0  0
  8 19  2  0  0  0  0
M  END
> <Value>
5.899998417198648

> <Relation>
<

> <SourceURI>
mol:CHEMBL468280

$$$$

Generated by Molecular Materials Informatics

 29 32  0  0  0  0  0  0  0  0999 V2000
   -0.5058   -1.2953    0.0000 F   0  0  0  0  0  0  0  0  0  0  0  0
    0.3758    0.0892    0.0000 O   0  0  0  0  0  0  0  0  0  0  0  0
   -5.0058   -9.0895    0.0000 O   0  0  0  0  0  0  0  0  0  0  0  0
    0.3758    2.5163    0.0000 N   0  0  0  0  0  0  0  0  0  0  0  0
   -2.0058    1.3029    0.0000 N   0  0  0  0  0  0  0  0  0  0  0  0
   -2.7558   -5.1924    0.0000 N   0  0  0  0  0  0  0  0  0  0  0  0
   -2.7558   -7.7904    0.0000 N   0  0  0  0  0  0  0  0  0  0  0  0
    1.8023    0.5529    0.0000 C   0  0  0  0  0  0  0  0  0  0  0  0
    1.8023    2.0529    0.0000 C   0  0  0  0  0  0  0  0  0  0  0  0
   -0.5058    1.3029    0.0000 C   0  0  0  0  0  0  0  0  0  0  0  0
    3.1014   -0.1971    0.0000 C   0  0  0  0  0  0  0  0  0  0  0  0
   -2.7558    0.0038    0.0000 C   0  0  0  0  0  0  0  0  0  0  0  0
   -4.2558   -2.5944    0.0000 C   0  0  0  0  0  0  0  0  0  0  0  0
   -5.0058   -3.8933    0.0000 C   0  0  0  0  0  0  0  0  0  0  0  0
   -2.0058   -1.2953    0.0000 C   0  0  0  0  0  0  0  0  0  0  0  0
    3.1014    2.8029    0.0000 C   0  0  0  0  0  0  0  0  0  0  0  0
   -4.2558   -5.1924    0.0000 C   0  0  0  0  0  0  0  0  0  0  0  0
    4.4005    2.0529    0.0000 C   0  0  0  0  0  0  0  0  0  0  0  0
   -2.7558   -2.5944    0.0000 C   0  0  0  0  0  0  0  0  0  0  0  0
    4.4005    0.5529    0.0000 C   0  0  0  0  0  0  0  0  0  0  0  0
   -5.0058   -6.4915    0.0000 C   0  0  0  0  0  0  0  0  0  0  0  0
   -4.2558    0.0038    0.0000 C   0  0  0  0  0  0  0  0  0  0  0  0
   -5.0058   -1.2953    0.0000 C   0  0  0  0  0  0  0  0  0  0  0  0
   -6.5058   -3.8933    0.0000 C   0  0  0  0  0  0  0  0  0  0  0  0
   -6.5058   -6.4915    0.0000 C   0  0  0  0  0  0  0  0  0  0  0  0
   -4.2558   -7.7904    0.0000 C   0  0  0  0  0  0  0  0  0  0  0  0
   -7.2558   -5.1924    0.0000 C   0  0  0  0  0  0  0  0  0  0  0  0
    3.1014   -1.6971    0.0000 C   0  0  0  0  0  0  0  0  0  0  0  0
    5.6994    2.8029    0.0000 C   0  0  0  0  0  0  0  0  0  0  0  0
  1 15  1  0  0  0  0
  2  8  1  0  0  0  0
  2 10  1  0  0  0  0
  3 26  2  0  0  0  0
  4  9  1  0  0  0  0
  4 10  2  0  0  0  0
  5 10  1  0  0  0  0
  5 12  1  0  0  0  0
  6 17  1  0  0  0  0
  7 26  1  0  0  0  0
  8  9  1  0  0  0  0
  8 11  2  0  0  0  0
  9 16  2  0  0  0  0
 11 20  1  0  0  0  0
 11 28  1  0  0  0  0
 12 15  1  0  0  0  0
 12 22  2  0  0  0  0
 13 14  1  0  0  0  0
 13 19  1  0  0  0  0
 13 23  2  0  0  0  0
 14 17  1  0  0  0  0
 14 24  2  0  0  0  0
 15 19  2  0  0  0  0
 16 18  1  0  0  0  0
 17 21  2  0  0  0  0
 18 20  2  0  0  0  0
 18 29  1  0  0  0  0
 21 25  1  0  0  0  0
 21 26  1  0  0  0  0
 22 23  1  0  0  0  0
 24 27  1  0  0  0  0
 25 27  2  0  0  0  0
M  END
> <Value>
5.899998417198648

> <Relation>
<

> <SourceURI>
mol:CHEMBL1990884

$$$$

Generated by Molecular Materials Informatics

 29 31  0  0  0  0  0  0  0  0999 V2000
   -8.7574    0.2479    0.0000 F   0  0  0  0  0  0  0  0  0  0  0  0
   -4.7161   -6.4819    0.0000 O   0  0  0  0  0  0  0  0  0  0  0  0
    1.7341   -3.6225    0.0000 O   0  0  0  0  0  0  0  0  0  0  0  0
   -7.2115   -5.5241    0.0000 N   0  0  0  0  0  0  0  0  0  0  0  0
   -2.8241   -5.6716    0.0000 N   0  0  0  0  0  0  0  0  0  0  0  0
    1.7341   -6.2207    0.0000 N   0  0  0  0  0  0  0  0  0  0  0  0
    5.4841   -7.5198    0.0000 N   0  0  0  0  0  0  0  0  0  0  0  0
   -5.4079   -3.8999    0.0000 C   0  0  0  0  0  0  0  0  0  0  0  0
   -6.7070   -3.1499    0.0000 C   0  0  0  0  0  0  0  0  0  0  0  0
   -2.8241   -4.1716    0.0000 C   0  0  0  0  0  0  0  0  0  0  0  0
   -0.5159   -4.9216    0.0000 C   0  0  0  0  0  0  0  0  0  0  0  0
   -7.8217   -4.1538    0.0000 C   0  0  0  0  0  0  0  0  0  0  0  0
   -1.3975   -3.7081    0.0000 C   0  0  0  0  0  0  0  0  0  0  0  0
   -5.7197   -5.3672    0.0000 C   0  0  0  0  0  0  0  0  0  0  0  0
   -4.0375   -3.2899    0.0000 C   0  0  0  0  0  0  0  0  0  0  0  0
   -1.3975   -6.1352    0.0000 C   0  0  0  0  0  0  0  0  0  0  0  0
   -7.0188   -1.6829    0.0000 C   0  0  0  0  0  0  0  0  0  0  0  0
    0.9841   -4.9216    0.0000 C   0  0  0  0  0  0  0  0  0  0  0  0
   -9.2483   -3.6901    0.0000 C   0  0  0  0  0  0  0  0  0  0  0  0
   -8.4454   -1.2192    0.0000 C   0  0  0  0  0  0  0  0  0  0  0  0
   -9.5601   -2.2230    0.0000 C   0  0  0  0  0  0  0  0  0  0  0  0
   -0.9339   -2.2816    0.0000 C   0  0  0  0  0  0  0  0  0  0  0  0
   -0.9339   -7.5618    0.0000 C   0  0  0  0  0  0  0  0  0  0  0  0
    3.2341   -6.2207    0.0000 C   0  0  0  0  0  0  0  0  0  0  0  0
    3.9841   -7.5198    0.0000 C   0  0  0  0  0  0  0  0  0  0  0  0
    6.2341   -8.8187    0.0000 C   0  0  0  0  0  0  0  0  0  0  0  0
    6.2341   -6.2207    0.0000 C   0  0  0  0  0  0  0  0  0  0  0  0
    7.7341   -8.8187    0.0000 C   0  0  0  0  0  0  0  0  0  0  0  0
    7.7341   -6.2207    0.0000 C   0  0  0  0  0  0  0  0  0  0  0  0
  1 20  1  0  0  0  0
  2 14  2  0  0  0  0
  3 18  2  0  0  0  0
  4 12  1  0  0  0  0
  4 14  1  0  0  0  0
  5 10  1  0  0  0  0
  5 16  1  0  0  0  0
  6 18  1  0  0  0  0
  6 24  1  0  0  0  0
  7 25  1  0  0  0  0
  7 26  1  0  0  0  0
  7 27  1  0  0  0  0
  8  9  1  0  0  0  0
  8 14  1  0  0  0  0
  8 15  2  0  0  0  0
  9 12  1  0  0  0  0
  9 17  2  0  0  0  0
 10 13  2  0  0  0  0
 15 10  1  0  0  0  0
 11 13  1  0  0  0  0
 11 16  2  0  0  0  0
 11 18  1  0  0  0  0
 12 19  2  0  0  0  0
 13 22  1  0  0  0  0
 16 23  1  0  0  0  0
 17 20  1  0  0  0  0
 19 21  1  0  0  0  0
 20 21  2  0  0  0  0
 24 25  1  0  0  0  0
 26 28  1  0  0  0  0
 27 29  1  0  0  0  0
M  END
> <Value>
6.699991797446187

> <Relation>
=

> <SourceURI>
mol:CHEMBL1990885

$$$$

Generated by Molecular Materials Informatics

 27 30  0  0  0  0  0  0  0  0999 V2000
   -3.6394  -10.4694    0.0000 C   0  0  0  0  0  0  0  0  0  0  0  0
   -3.6469  -11.9693    0.0000 C   0  0  0  0  0  0  0  0  0  0  0  0
   -2.2228  -12.4400    0.0000 N   0  0  0  0  0  0  0  0  0  0  0  0
   -1.3348  -11.2310    0.0000 C   0  0  0  0  0  0  0  0  0  0  0  0
   -2.2104  -10.0132    0.0000 N   0  0  0  0  0  0  0  0  0  0  0  0
   -1.7457   -8.5963    0.0000 C   0  0  0  0  0  0  0  0  0  0  0  0
   -0.2745   -8.2951    0.0000 C   0  0  0  0  0  0  0  0  0  0  0  0
    0.1975   -6.8782    0.0000 C   0  0  0  0  0  0  0  0  0  0  0  0
   -0.7952   -5.7530    0.0000 C   0  0  0  0  0  0  0  0  0  0  0  0
   -2.2664   -6.0542    0.0000 C   0  0  0  0  0  0  0  0  0  0  0  0
   -2.7447   -7.4809    0.0000 C   0  0  0  0  0  0  0  0  0  0  0  0
   -0.3190   -4.3305    0.0000 O   0  0  0  0  0  0  0  0  0  0  0  0
   -4.8436   -9.5889    0.0000 C   0  0  0  0  0  0  0  0  0  0  0  0
   -4.6765   -8.0964    0.0000 N   0  0  0  0  0  0  0  0  0  0  0  0
   -5.8839   -7.2088    0.0000 C   0  0  0  0  0  0  0  0  0  0  0  0
   -7.2591   -7.8118    0.0000 N   0  0  0  0  0  0  0  0  0  0  0  0
   -7.4195   -9.3109    0.0000 C   0  0  0  0  0  0  0  0  0  0  0  0
   -6.2103  -10.1918    0.0000 C   0  0  0  0  0  0  0  0  0  0  0  0
   -5.7188   -5.7179    0.0000 O   0  0  0  0  0  0  0  0  0  0  0  0
   -6.9275   -4.8296    0.0000 C   0  0  0  0  0  0  0  0  0  0  0  0
   -4.8585  -12.8429    0.0000 C   0  0  0  0  0  0  0  0  0  0  0  0
   -6.2266  -12.2230    0.0000 C   0  0  0  0  0  0  0  0  0  0  0  0
   -7.4437  -13.0971    0.0000 C   0  0  0  0  0  0  0  0  0  0  0  0
   -7.2951  -14.5913    0.0000 C   0  0  0  0  0  0  0  0  0  0  0  0
   -5.9190  -15.2071    0.0000 C   0  0  0  0  0  0  0  0  0  0  0  0
   -4.7076  -14.3293    0.0000 C   0  0  0  0  0  0  0  0  0  0  0  0
   -8.5238  -15.4683    0.0000 F   0  0  0  0  0  0  0  0  0  0  0  0
 13 14  2  0  0  0  0
  2  3  1  0  0  0  0
 14 15  1  0  0  0  0
  3  4  2  0  0  0  0
 15 16  2  0  0  0  0
  4  5  1  0  0  0  0
 16 17  1  0  0  0  0
  5  1  1  0  0  0  0
 17 18  2  0  0  0  0
 18 13  1  0  0  0  0
  1 13  1  0  0  0  0
  6 11  1  0  0  0  0
 15 19  1  0  0  0  0
  7  8  1  0  0  0  0
 19 20  1  0  0  0  0
  8  9  1  0  0  0  0
  9 10  1  0  0  0  0
 21 22  2  0  0  0  0
 10 11  1  0  0  0  0
 22 23  1  0  0  0  0
  5  6  1  0  0  0  0
 23 24  2  0  0  0  0
  6  7  1  0  0  0  0
 24 25  1  0  0  0  0
  9 12  1  0  0  0  0
 25 26  2  0  0  0  0
 26 21  1  0  0  0  0
  2 21  1  0  0  0  0
  1  2  2  0  0  0  0
 24 27  1  0  0  0  0
M  END
> <Value>
5.899998417198648

> <Relation>
<

> <SourceURI>
mol:CHEMBL256835

$$$$

Generated by Molecular Materials Informatics

 37 40  0  0  0  0  0  0  0  0999 V2000
  -11.4802   -5.2331    0.0000 O   0  0  0  0  0  0  0  0  0  0  0  0
   -2.0606   -2.1960    0.0000 O   0  0  0  0  0  0  0  0  0  0  0  0
   -7.2567   -3.6960    0.0000 N   0  0  0  0  0  0  0  0  0  0  0  0
   -7.4135   -2.2042    0.0000 N   0  0  0  0  0  0  0  0  0  0  0  0
   -8.9389   -5.7733    0.0000 N   0  0  0  0  0  0  0  0  0  0  0  0
  -10.6773   -7.7042    0.0000 N   0  0  0  0  0  0  0  0  0  0  0  0
   -0.7615   -4.4460    0.0000 N   0  0  0  0  0  0  0  0  0  0  0  0
    4.4347   -2.9460    0.0000 N   0  0  0  0  0  0  0  0  0  0  0  0
   -8.6271   -4.3062    0.0000 C   0  0  0  0  0  0  0  0  0  0  0  0
   -8.8807   -1.8924    0.0000 C   0  0  0  0  0  0  0  0  0  0  0  0
   -5.9576   -4.4460    0.0000 C   0  0  0  0  0  0  0  0  0  0  0  0
   -9.6307   -3.1915    0.0000 C   0  0  0  0  0  0  0  0  0  0  0  0
   -9.4907   -0.5220    0.0000 C   0  0  0  0  0  0  0  0  0  0  0  0
   -4.6586   -3.6960    0.0000 C   0  0  0  0  0  0  0  0  0  0  0  0
   -3.3596   -4.4460    0.0000 C   0  0  0  0  0  0  0  0  0  0  0  0
   -5.9576   -5.9460    0.0000 C   0  0  0  0  0  0  0  0  0  0  0  0
  -10.3655   -6.2369    0.0000 C   0  0  0  0  0  0  0  0  0  0  0  0
   -9.5626   -8.7078    0.0000 C   0  0  0  0  0  0  0  0  0  0  0  0
   -9.8746  -10.1751    0.0000 C   0  0  0  0  0  0  0  0  0  0  0  0
   -2.0606   -3.6960    0.0000 C   0  0  0  0  0  0  0  0  0  0  0  0
   -3.3596   -5.9460    0.0000 C   0  0  0  0  0  0  0  0  0  0  0  0
   -8.7598  -11.1787    0.0000 C   0  0  0  0  0  0  0  0  0  0  0  0
   -4.6586   -6.6960    0.0000 C   0  0  0  0  0  0  0  0  0  0  0  0
  -10.1009    0.8482    0.0000 C   0  0  0  0  0  0  0  0  0  0  0  0
  -10.8611   -1.1322    0.0000 C   0  0  0  0  0  0  0  0  0  0  0  0
   -8.1206    0.0880    0.0000 C   0  0  0  0  0  0  0  0  0  0  0  0
   -8.1360   -8.2442    0.0000 C   0  0  0  0  0  0  0  0  0  0  0  0
  -11.3011  -10.6386    0.0000 C   0  0  0  0  0  0  0  0  0  0  0  0
   -7.3333  -10.7151    0.0000 C   0  0  0  0  0  0  0  0  0  0  0  0
   -9.0716  -12.6460    0.0000 C   0  0  0  0  0  0  0  0  0  0  0  0
   -7.0213   -9.2480    0.0000 C   0  0  0  0  0  0  0  0  0  0  0  0
  -11.6129  -12.1058    0.0000 C   0  0  0  0  0  0  0  0  0  0  0  0
  -10.4982  -13.1095    0.0000 C   0  0  0  0  0  0  0  0  0  0  0  0
    0.5374   -3.6960    0.0000 C   0  0  0  0  0  0  0  0  0  0  0  0
   -0.7615   -5.9460    0.0000 C   0  0  0  0  0  0  0  0  0  0  0  0
    1.8365   -4.4460    0.0000 C   0  0  0  0  0  0  0  0  0  0  0  0
    3.1356   -3.6960    0.0000 C   0  0  0  0  0  0  0  0  0  0  0  0
  1 17  2  0  0  0  0
  2 20  2  0  0  0  0
  3  4  1  0  0  0  0
  3  9  1  0  0  0  0
  3 11  1  0  0  0  0
  4 10  2  0  0  0  0
  5  9  1  0  0  0  0
  5 17  1  0  0  0  0
  6 17  1  0  0  0  0
  6 18  1  0  0  0  0
  7 20  1  0  0  0  0
  7 34  1  0  0  0  0
  7 35  1  0  0  0  0
  8 37  3  0  0  0  0
  9 12  2  0  0  0  0
 10 12  1  0  0  0  0
 10 13  1  0  0  0  0
 11 14  2  0  0  0  0
 11 16  1  0  0  0  0
 13 24  1  0  0  0  0
 13 25  1  0  0  0  0
 13 26  1  0  0  0  0
 14 15  1  0  0  0  0
 15 20  1  0  0  0  0
 15 21  2  0  0  0  0
 16 23  2  0  0  0  0
 18 19  1  0  0  0  0
 18 27  2  0  0  0  0
 19 22  1  0  0  0  0
 19 28  2  0  0  0  0
 21 23  1  0  0  0  0
 22 29  1  0  0  0  0
 22 30  2  0  0  0  0
 27 31  1  0  0  0  0
 28 32  1  0  0  0  0
 29 31  2  0  0  0  0
 30 33  1  0  0  0  0
 32 33  2  0  0  0  0
 34 36  1  0  0  0  0
 36 37  1  0  0  0  0
M  END
> <Value>
5.300000202445418

> <Relation>
<

> <SourceURI>
mol:CHEMBL1974998

$$$$

Generated by Molecular Materials Informatics

 28 30  0  0  0  0  0  0  0  0999 V2000
    1.6760   -6.8438    0.0000 F   0  0  0  0  0  0  0  0  0  0  0  0
    3.1760   -5.3437    0.0000 F   0  0  0  0  0  0  0  0  0  0  0  0
    0.1760   -5.3437    0.0000 F   0  0  0  0  0  0  0  0  0  0  0  0
    2.9750    8.9062    0.0000 F   0  0  0  0  0  0  0  0  0  0  0  0
    4.4750    7.4062    0.0000 F   0  0  0  0  0  0  0  0  0  0  0  0
    1.4750    7.4062    0.0000 F   0  0  0  0  0  0  0  0  0  0  0  0
    1.6760    0.6562    0.0000 O   0  0  0  0  0  0  0  0  0  0  0  0
   -0.9220   -3.8438    0.0000 N   0  0  0  0  0  0  0  0  0  0  0  0
   -0.9220    0.6562    0.0000 N   0  0  0  0  0  0  0  0  0  0  0  0
    1.6760    5.1562    0.0000 N   0  0  0  0  0  0  0  0  0  0  0  0
    0.3770    2.9062    0.0000 N   0  0  0  0  0  0  0  0  0  0  0  0
    0.3770   -3.0938    0.0000 C   0  0  0  0  0  0  0  0  0  0  0  0
    0.3770   -1.5938    0.0000 C   0  0  0  0  0  0  0  0  0  0  0  0
    1.6760   -3.8438    0.0000 C   0  0  0  0  0  0  0  0  0  0  0  0
   -0.9220   -0.8438    0.0000 C   0  0  0  0  0  0  0  0  0  0  0  0
    1.6760   -5.3437    0.0000 C   0  0  0  0  0  0  0  0  0  0  0  0
    1.6760   -0.8438    0.0000 C   0  0  0  0  0  0  0  0  0  0  0  0
    2.9750   -3.0938    0.0000 C   0  0  0  0  0  0  0  0  0  0  0  0
   -2.2211   -1.5938    0.0000 C   0  0  0  0  0  0  0  0  0  0  0  0
    2.9750    5.9062    0.0000 C   0  0  0  0  0  0  0  0  0  0  0  0
    2.9750   -1.5938    0.0000 C   0  0  0  0  0  0  0  0  0  0  0  0
    2.9750    7.4062    0.0000 C   0  0  0  0  0  0  0  0  0  0  0  0
   -2.2211   -3.0938    0.0000 C   0  0  0  0  0  0  0  0  0  0  0  0
    1.6760    3.6562    0.0000 C   0  0  0  0  0  0  0  0  0  0  0  0
    0.3770    1.4062    0.0000 C   0  0  0  0  0  0  0  0  0  0  0  0
    4.2741    5.1562    0.0000 C   0  0  0  0  0  0  0  0  0  0  0  0
    2.9750    2.9062    0.0000 C   0  0  0  0  0  0  0  0  0  0  0  0
    4.2741    3.6562    0.0000 C   0  0  0  0  0  0  0  0  0  0  0  0
  1 16  1  0  0  0  0
  2 16  1  0  0  0  0
  3 16  1  0  0  0  0
  4 22  1  0  0  0  0
  5 22  1  0  0  0  0
  6 22  1  0  0  0  0
  7 25  2  0  0  0  0
  8 12  1  0  0  0  0
  8 23  2  0  0  0  0
  9 15  1  0  0  0  0
  9 25  1  0  0  0  0
 10 20  1  0  0  0  0
 10 24  2  0  0  0  0
 11 24  1  0  0  0  0
 11 25  1  0  0  0  0
 12 13  1  0  0  0  0
 12 14  2  0  0  0  0
 13 15  1  0  0  0  0
 13 17  2  0  0  0  0
 14 16  1  0  0  0  0
 14 18  1  0  0  0  0
 15 19  2  0  0  0  0
 17 21  1  0  0  0  0
 18 21  2  0  0  0  0
 19 23  1  0  0  0  0
 20 22  1  0  0  0  0
 20 26  2  0  0  0  0
 24 27  1  0  0  0  0
 26 28  1  0  0  0  0
 27 28  2  0  0  0  0
M  END
> <Value>
5.899998417198648

> <Relation>
<

> <SourceURI>
mol:CHEMBL1980142

$$$$

Generated by Molecular Materials Informatics

 26 28  0  0  0  0  0  0  0  0999 V2000
   -5.4428   -9.8624    0.0000 C   0  0  0  0  0  0  0  0  0  0  0  0
   -5.4451  -11.3671    0.0000 N   0  0  0  0  0  0  0  0  0  0  0  0
   -4.1488  -12.1178    0.0000 N   0  0  0  0  0  0  0  0  0  0  0  0
   -4.1525   -9.1119    0.0000 C   0  0  0  0  0  0  0  0  0  0  0  0
   -2.8467   -9.8552    0.0000 C   0  0  0  0  0  0  0  0  0  0  0  0
   -2.8458  -11.3671    0.0000 C   0  0  0  0  0  0  0  0  0  0  0  0
   -1.4076  -11.8333    0.0000 N   0  0  0  0  0  0  0  0  0  0  0  0
   -0.5197  -10.6097    0.0000 N   0  0  0  0  0  0  0  0  0  0  0  0
   -1.4091   -9.3870    0.0000 C   0  0  0  0  0  0  0  0  0  0  0  0
   -0.9466   -7.9603    0.0000 N   0  0  0  0  0  0  0  0  0  0  0  0
    0.5203   -7.6476    0.0000 C   0  0  0  0  0  0  0  0  0  0  0  0
    0.9828   -6.2205    0.0000 C   0  0  0  0  0  0  0  0  0  0  0  0
    1.5246   -8.7616    0.0000 O   0  0  0  0  0  0  0  0  0  0  0  0
    2.4499   -5.9078    0.0000 C   0  0  0  0  0  0  0  0  0  0  0  0
    2.9124   -4.4812    0.0000 C   0  0  0  0  0  0  0  0  0  0  0  0
   -6.7420   -9.1145    0.0000 C   0  0  0  0  0  0  0  0  0  0  0  0
   -6.7409   -7.6125    0.0000 C   0  0  0  0  0  0  0  0  0  0  0  0
   -8.0391   -6.8638    0.0000 C   0  0  0  0  0  0  0  0  0  0  0  0
   -9.3392   -7.6150    0.0000 C   0  0  0  0  0  0  0  0  0  0  0  0
   -9.3330   -9.1226    0.0000 C   0  0  0  0  0  0  0  0  0  0  0  0
   -8.0338   -9.8646    0.0000 C   0  0  0  0  0  0  0  0  0  0  0  0
    4.3793   -4.1681    0.0000 N   0  0  0  0  0  0  0  0  0  0  0  0
    4.8420   -2.7414    0.0000 C   0  0  0  0  0  0  0  0  0  0  0  0
    5.3836   -5.2822    0.0000 C   0  0  0  0  0  0  0  0  0  0  0  0
   -5.4417   -6.8627    0.0000 F   0  0  0  0  0  0  0  0  0  0  0  0
   -8.0394   -5.3639    0.0000 F   0  0  0  0  0  0  0  0  0  0  0  0
  2  3  1  0  0  0  0
 11 13  2  0  0  0  0
  3  6  2  0  0  0  0
 12 14  1  0  0  0  0
  1  2  2  0  0  0  0
 14 15  1  0  0  0  0
  5  4  2  0  0  0  0
  6  7  1  0  0  0  0
 16 17  2  0  0  0  0
  7  8  1  0  0  0  0
 17 18  1  0  0  0  0
  8  9  2  0  0  0  0
 18 19  2  0  0  0  0
  9  5  1  0  0  0  0
 19 20  1  0  0  0  0
  4  1  1  0  0  0  0
 20 21  2  0  0  0  0
 21 16  1  0  0  0  0
  1 16  1  0  0  0  0
  9 10  1  0  0  0  0
 15 22  1  0  0  0  0
  5  6  1  0  0  0  0
 22 23  1  0  0  0  0
 10 11  1  0  0  0  0
 22 24  1  0  0  0  0
 17 25  1  0  0  0  0
 11 12  1  0  0  0  0
 18 26  1  0  0  0  0
M  END
> <Value>
5.899998417198648

> <Relation>
<

> <SourceURI>
mol:CHEMBL41783

$$$$

Generated by Molecular Materials Informatics

 25 28  0  0  0  0  0  0  0  0999 V2000
    0.5466    2.5656    0.0000 O   0  0  0  0  0  0  0  0  0  0  0  0
    4.0646   -3.9038    0.0000 O   0  0  0  0  0  0  0  0  0  0  0  0
    2.6639    0.7337    0.0000 N   0  0  0  0  0  0  0  0  0  0  0  0
    1.9139   -2.5523    0.0000 N   0  0  0  0  0  0  0  0  0  0  0  0
    7.6477    1.6812    0.0000 N   0  0  0  0  0  0  0  0  0  0  0  0
   11.9480    0.3548    0.0000 N   0  0  0  0  0  0  0  0  0  0  0  0
    4.0153    0.0828    0.0000 C   0  0  0  0  0  0  0  0  0  0  0  0
    1.3124    0.0828    0.0000 C   0  0  0  0  0  0  0  0  0  0  0  0
    4.3490   -1.3796    0.0000 C   0  0  0  0  0  0  0  0  0  0  0  0
    0.9786   -1.3796    0.0000 C   0  0  0  0  0  0  0  0  0  0  0  0
    3.4139   -2.5523    0.0000 C   0  0  0  0  0  0  0  0  0  0  0  0
    0.2128    1.1032    0.0000 C   0  0  0  0  0  0  0  0  0  0  0  0
    5.1148    1.1032    0.0000 C   0  0  0  0  0  0  0  0  0  0  0  0
    6.5483    0.6610    0.0000 C   0  0  0  0  0  0  0  0  0  0  0  0
    5.7824   -1.8217    0.0000 C   0  0  0  0  0  0  0  0  0  0  0  0
   -0.4549   -1.8217    0.0000 C   0  0  0  0  0  0  0  0  0  0  0  0
    6.8821   -0.8014    0.0000 C   0  0  0  0  0  0  0  0  0  0  0  0
   -1.2205    0.6610    0.0000 C   0  0  0  0  0  0  0  0  0  0  0  0
   -1.5544   -0.8014    0.0000 C   0  0  0  0  0  0  0  0  0  0  0  0
    9.0812    1.2392    0.0000 C   0  0  0  0  0  0  0  0  0  0  0  0
    9.4150   -0.2234    0.0000 C   0  0  0  0  0  0  0  0  0  0  0  0
   10.1809    2.2594    0.0000 C   0  0  0  0  0  0  0  0  0  0  0  0
   -0.5531    3.5858    0.0000 C   0  0  0  0  0  0  0  0  0  0  0  0
   10.8483   -0.6654    0.0000 C   0  0  0  0  0  0  0  0  0  0  0  0
   11.6141    1.8172    0.0000 C   0  0  0  0  0  0  0  0  0  0  0  0
  1 12  1  0  0  0  0
  1 23  1  0  0  0  0
  2 11  2  0  0  0  0
  3  7  1  0  0  0  0
  3  8  1  0  0  0  0
  4 10  1  0  0  0  0
  4 11  1  0  0  0  0
  5 14  1  0  0  0  0
  5 20  1  0  0  0  0
  6 24  2  0  0  0  0
  6 25  1  0  0  0  0
  7  9  1  0  0  0  0
  7 13  2  0  0  0  0
  8 10  2  0  0  0  0
  8 12  1  0  0  0  0
  9 11  1  0  0  0  0
  9 15  2  0  0  0  0
 10 16  1  0  0  0  0
 12 18  2  0  0  0  0
 13 14  1  0  0  0  0
 14 17  2  0  0  0  0
 15 17  1  0  0  0  0
 16 19  2  0  0  0  0
 18 19  1  0  0  0  0
 20 21  2  0  0  0  0
 20 22  1  0  0  0  0
 21 24  1  0  0  0  0
 22 25  2  0  0  0  0
M  END
> <Value>
5.899998417198648

> <Relation>
<

> <SourceURI>
mol:CHEMBL2006276

$$$$

Generated by Molecular Materials Informatics

 27 29  0  0  0  0  0  0  0  0999 V2000
    6.7139    1.9569    0.0000 C   0  0  0  0  0  0  0  0  0  0  0  0
    7.1016    3.4078    0.0000 C   0  0  0  0  0  0  0  0  0  0  0  0
    6.0400    4.4650    0.0000 C   0  0  0  0  0  0  0  0  0  0  0  0
    4.5905    4.0737    0.0000 C   0  0  0  0  0  0  0  0  0  0  0  0
    4.2087    2.6156    0.0000 C   0  0  0  0  0  0  0  0  0  0  0  0
    5.2729    1.5645    0.0000 C   0  0  0  0  0  0  0  0  0  0  0  0
    7.7772    0.8987    0.0000 C   0  0  0  0  0  0  0  0  0  0  0  0
    7.3925   -0.5511    0.0000 N   0  0  0  0  0  0  0  0  0  0  0  0
    5.9950   -1.0916    0.0000 N   0  0  0  0  0  0  0  0  0  0  0  0
    6.0770   -2.5894    0.0000 C   0  0  0  0  0  0  0  0  0  0  0  0
    7.5268   -2.9741    0.0000 N   0  0  0  0  0  0  0  0  0  0  0  0
    8.3408   -1.7141    0.0000 C   0  0  0  0  0  0  0  0  0  0  0  0
    4.9138   -3.5361    0.0000 N   0  0  0  0  0  0  0  0  0  0  0  0
    3.5120   -3.0021    0.0000 C   0  0  0  0  0  0  0  0  0  0  0  0
    3.2787   -1.5220    0.0000 C   0  0  0  0  0  0  0  0  0  0  0  0
    1.8788   -0.9876    0.0000 C   0  0  0  0  0  0  0  0  0  0  0  0
    0.7135   -1.9349    0.0000 C   0  0  0  0  0  0  0  0  0  0  0  0
    0.9577   -3.4226    0.0000 C   0  0  0  0  0  0  0  0  0  0  0  0
    2.3578   -3.9499    0.0000 C   0  0  0  0  0  0  0  0  0  0  0  0
   -0.6888   -1.4025    0.0000 S   0  0  0  0  0  0  0  0  0  0  0  0
    0.6033   -0.6425    0.0000 O   0  0  0  0  0  0  0  0  0  0  0  0
   -1.9952   -2.1425    0.0000 N   0  0  0  0  0  0  0  0  0  0  0  0
   -2.1466   -1.0062    0.0000 O   0  0  0  0  0  0  0  0  0  0  0  0
    9.2252    1.2905    0.0000 O   0  0  0  0  0  0  0  0  0  0  0  0
    9.8386   -1.6314    0.0000 N   0  0  0  0  0  0  0  0  0  0  0  0
    8.5499    3.7979    0.0000 F   0  0  0  0  0  0  0  0  0  0  0  0
    4.8922    0.1136    0.0000 F   0  0  0  0  0  0  0  0  0  0  0  0
 10 13  1  0  0  0  0
  1  2  2  0  0  0  0
 13 14  1  0  0  0  0
  1  7  1  0  0  0  0
 14 15  2  0  0  0  0
  3  4  2  0  0  0  0
 15 16  1  0  0  0  0
  7  8  1  0  0  0  0
 16 17  2  0  0  0  0
 11 12  2  0  0  0  0
 17 18  1  0  0  0  0
 18 19  2  0  0  0  0
 19 14  1  0  0  0  0
  9 10  2  0  0  0  0
 17 20  1  0  0  0  0
  4  5  1  0  0  0  0
 20 21  2  0  0  0  0
  2  3  1  0  0  0  0
 20 22  1  0  0  0  0
  5  6  2  0  0  0  0
 20 23  2  0  0  0  0
  8  9  1  0  0  0  0
  7 24  2  0  0  0  0
 10 11  1  0  0  0  0
 12 25  1  0  0  0  0
 12  8  1  0  0  0  0
  2 26  1  0  0  0  0
  6  1  1  0  0  0  0
  6 27  1  0  0  0  0
M  END
> <Value>
5.700000503883016

> <Relation>
=

> <SourceURI>
mol:CHEMBL191003

$$$$

Generated by Molecular Materials Informatics

 29 32  0  0  0  0  0  0  0  0999 V2000
    7.4499  -20.9049    0.0000 C   0  0  0  0  0  0  0  0  0  0  0  0
    8.7525  -20.1532    0.0000 C   0  0  0  0  0  0  0  0  0  0  0  0
    8.7472  -18.6432    0.0000 C   0  0  0  0  0  0  0  0  0  0  0  0
    7.4467  -17.8994    0.0000 C   0  0  0  0  0  0  0  0  0  0  0  0
    7.4369  -16.4045    0.0000 C   0  0  0  0  0  0  0  0  0  0  0  0
    8.7367  -15.6518    0.0000 C   0  0  0  0  0  0  0  0  0  0  0  0
    8.7328  -14.1533    0.0000 C   0  0  0  0  0  0  0  0  0  0  0  0
    7.4307  -13.4057    0.0000 C   0  0  0  0  0  0  0  0  0  0  0  0
    6.1296  -14.1676    0.0000 C   0  0  0  0  0  0  0  0  0  0  0  0
    6.1398  -15.6636    0.0000 C   0  0  0  0  0  0  0  0  0  0  0  0
    4.7192  -20.6174    0.0000 O   0  0  0  0  0  0  0  0  0  0  0  0
    6.1501  -20.1541    0.0000 C   0  0  0  0  0  0  0  0  0  0  0  0
    6.1498  -18.6489    0.0000 C   0  0  0  0  0  0  0  0  0  0  0  0
    4.7167  -18.1865    0.0000 C   0  0  0  0  0  0  0  0  0  0  0  0
    3.8365  -19.4078    0.0000 N   0  0  0  0  0  0  0  0  0  0  0  0
    4.2489  -16.7614    0.0000 N   0  0  0  0  0  0  0  0  0  0  0  0
    7.4241  -11.9057    0.0000 N   0  0  0  0  0  0  0  0  0  0  0  0
    8.7199  -11.1500    0.0000 C   0  0  0  0  0  0  0  0  0  0  0  0
   10.0221  -11.8944    0.0000 N   0  0  0  0  0  0  0  0  0  0  0  0
    8.7134   -9.6501    0.0000 O   0  0  0  0  0  0  0  0  0  0  0  0
   11.3179  -11.1388    0.0000 C   0  0  0  0  0  0  0  0  0  0  0  0
   12.6139  -11.8900    0.0000 C   0  0  0  0  0  0  0  0  0  0  0  0
   13.9088  -11.1357    0.0000 C   0  0  0  0  0  0  0  0  0  0  0  0
   13.9032   -9.6342    0.0000 C   0  0  0  0  0  0  0  0  0  0  0  0
   12.5917   -8.8901    0.0000 C   0  0  0  0  0  0  0  0  0  0  0  0
   11.3023   -9.6488    0.0000 C   0  0  0  0  0  0  0  0  0  0  0  0
    7.4530  -22.4007    0.0000 O   0  0  0  0  0  0  0  0  0  0  0  0
    8.7519  -23.1508    0.0000 C   0  0  0  0  0  0  0  0  0  0  0  0
   15.2108  -11.8808    0.0000 Br  0  0  0  0  0  0  0  0  0  0  0  0
 11 12  1  0  0  0  0
 13 14  1  0  0  0  0
 14 15  2  0  0  0  0
 15 11  1  0  0  0  0
 14 16  1  0  0  0  0
  7  8  2  0  0  0  0
  8 17  1  0  0  0  0
  3  4  2  0  0  0  0
 17 18  1  0  0  0  0
  8  9  1  0  0  0  0
 18 19  1  0  0  0  0
  4 13  1  0  0  0  0
 18 20  2  0  0  0  0
  9 10  2  0  0  0  0
 19 21  1  0  0  0  0
 10  5  1  0  0  0  0
 21 22  2  0  0  0  0
  4  5  1  0  0  0  0
 22 23  1  0  0  0  0
 12 13  2  0  0  0  0
 23 24  2  0  0  0  0
  1  2  2  0  0  0  0
 24 25  1  0  0  0  0
 12  1  1  0  0  0  0
 25 26  2  0  0  0  0
 26 21  1  0  0  0  0
  5  6  2  0  0  0  0
  2  3  1  0  0  0  0
 27 28  1  0  0  0  0
  1 27  1  0  0  0  0
  6  7  1  0  0  0  0
 23 29  1  0  0  0  0
M  END
> <Value>
5.899998417198648

> <Relation>
<

> <SourceURI>
mol:CHEMBL271381

$$$$

Generated by Molecular Materials Informatics

 23 25  0  0  0  0  0  0  0  0999 V2000
    2.2577   -1.9066    0.0000 Cl  0  0  0  0  0  0  0  0  0  0  0  0
    4.8557   -0.4066    0.0000 Cl  0  0  0  0  0  0  0  0  0  0  0  0
   -0.4680    2.3068    0.0000 S   0  0  0  0  0  0  0  0  0  0  0  0
    1.5395   -2.3497    0.0000 O   0  0  0  0  0  0  0  0  0  0  0  0
   -0.9314   -1.5468    0.0000 N   0  0  0  0  0  0  0  0  0  0  0  0
   -4.3496    1.0934    0.0000 N   0  0  0  0  0  0  0  0  0  0  0  0
    0.9586    0.3434    0.0000 C   0  0  0  0  0  0  0  0  0  0  0  0
   -0.4680   -0.1202    0.0000 C   0  0  0  0  0  0  0  0  0  0  0  0
    0.9586    1.8434    0.0000 C   0  0  0  0  0  0  0  0  0  0  0  0
   -1.3496    1.0934    0.0000 C   0  0  0  0  0  0  0  0  0  0  0  0
    2.2577   -0.4066    0.0000 C   0  0  0  0  0  0  0  0  0  0  0  0
    3.5568    0.3434    0.0000 C   0  0  0  0  0  0  0  0  0  0  0  0
    2.2577    2.5934    0.0000 C   0  0  0  0  0  0  0  0  0  0  0  0
    3.5568    1.8434    0.0000 C   0  0  0  0  0  0  0  0  0  0  0  0
    0.0722   -2.6615    0.0000 C   0  0  0  0  0  0  0  0  0  0  0  0
   -2.8496    1.0934    0.0000 C   0  0  0  0  0  0  0  0  0  0  0  0
   -0.3914   -4.0881    0.0000 C   0  0  0  0  0  0  0  0  0  0  0  0
    0.6124   -5.2028    0.0000 C   0  0  0  0  0  0  0  0  0  0  0  0
   -1.8585   -4.3999    0.0000 C   0  0  0  0  0  0  0  0  0  0  0  0
    0.1488   -6.6293    0.0000 C   0  0  0  0  0  0  0  0  0  0  0  0
   -2.3221   -5.8266    0.0000 C   0  0  0  0  0  0  0  0  0  0  0  0
   -1.3183   -6.9413    0.0000 C   0  0  0  0  0  0  0  0  0  0  0  0
   -1.7820   -8.3679    0.0000 C   0  0  0  0  0  0  0  0  0  0  0  0
  1 11  1  0  0  0  0
  2 12  1  0  0  0  0
  3  9  1  0  0  0  0
  3 10  1  0  0  0  0
  4 15  2  0  0  0  0
  5  8  1  0  0  0  0
  5 15  1  0  0  0  0
  6 16  3  0  0  0  0
  7  8  1  0  0  0  0
  7  9  1  0  0  0  0
  7 11  2  0  0  0  0
  8 10  2  0  0  0  0
  9 13  2  0  0  0  0
 10 16  1  0  0  0  0
 11 12  1  0  0  0  0
 12 14  2  0  0  0  0
 13 14  1  0  0  0  0
 15 17  1  0  0  0  0
 17 18  2  0  0  0  0
 17 19  1  0  0  0  0
 18 20  1  0  0  0  0
 19 21  2  0  0  0  0
 20 22  2  0  0  0  0
 21 22  1  0  0  0  0
 22 23  1  0  0  0  0
M  END
> <Value>
5.899998417198648

> <Relation>
<

> <SourceURI>
mol:CHEMBL2006785

$$$$

Generated by Molecular Materials Informatics

 33 37  0  0  0  0  0  0  0  0999 V2000
    1.1230    3.6785    0.0000 S   0  0  0  0  0  0  0  0  0  0  0  0
   -3.2020   -3.6520    0.0000 O   0  0  0  0  0  0  0  0  0  0  0  0
    5.1478    1.7149    0.0000 N   0  0  0  0  0  0  0  0  0  0  0  0
    3.0987    7.7733    0.0000 N   0  0  0  0  0  0  0  0  0  0  0  0
    3.8487   -0.5351    0.0000 N   0  0  0  0  0  0  0  0  0  0  0  0
    4.5987    7.7733    0.0000 N   0  0  0  0  0  0  0  0  0  0  0  0
   -0.7311   -4.4549    0.0000 N   0  0  0  0  0  0  0  0  0  0  0  0
   -2.6619   -6.1933    0.0000 N   0  0  0  0  0  0  0  0  0  0  0  0
    2.5496    1.7149    0.0000 C   0  0  0  0  0  0  0  0  0  0  0  0
    2.5496    3.2149    0.0000 C   0  0  0  0  0  0  0  0  0  0  0  0
    1.1230    1.2515    0.0000 C   0  0  0  0  0  0  0  0  0  0  0  0
    3.8487    3.9649    0.0000 C   0  0  0  0  0  0  0  0  0  0  0  0
    3.8487    0.9649    0.0000 C   0  0  0  0  0  0  0  0  0  0  0  0
    0.6596   -0.1751    0.0000 C   0  0  0  0  0  0  0  0  0  0  0  0
    3.8487    5.4649    0.0000 C   0  0  0  0  0  0  0  0  0  0  0  0
    0.2414    2.4649    0.0000 C   0  0  0  0  0  0  0  0  0  0  0  0
    5.1478    3.2149    0.0000 C   0  0  0  0  0  0  0  0  0  0  0  0
    2.6350    6.3467    0.0000 C   0  0  0  0  0  0  0  0  0  0  0  0
    5.0621    6.3467    0.0000 C   0  0  0  0  0  0  0  0  0  0  0  0
    1.6632   -1.2898    0.0000 C   0  0  0  0  0  0  0  0  0  0  0  0
   -0.8077   -0.4869    0.0000 C   0  0  0  0  0  0  0  0  0  0  0  0
   -0.2675   -3.0284    0.0000 C   0  0  0  0  0  0  0  0  0  0  0  0
    1.1996   -2.7164    0.0000 C   0  0  0  0  0  0  0  0  0  0  0  0
   -1.2713   -1.9136    0.0000 C   0  0  0  0  0  0  0  0  0  0  0  0
    2.2170    8.9867    0.0000 C   0  0  0  0  0  0  0  0  0  0  0  0
   -2.1982   -4.7667    0.0000 C   0  0  0  0  0  0  0  0  0  0  0  0
   -4.1290   -6.5053    0.0000 C   0  0  0  0  0  0  0  0  0  0  0  0
   -4.5926   -7.9318    0.0000 C   0  0  0  0  0  0  0  0  0  0  0  0
   -5.1328   -5.3905    0.0000 C   0  0  0  0  0  0  0  0  0  0  0  0
   -7.0635   -7.1289    0.0000 C   0  0  0  0  0  0  0  0  0  0  0  0
   -6.0599   -8.2436    0.0000 C   0  0  0  0  0  0  0  0  0  0  0  0
   -6.6000   -5.7024    0.0000 C   0  0  0  0  0  0  0  0  0  0  0  0
   -8.5308   -7.4407    0.0000 C   0  0  0  0  0  0  0  0  0  0  0  0
  1 10  1  0  0  0  0
  1 16  1  0  0  0  0
  2 26  2  0  0  0  0
  3 13  1  0  0  0  0
  3 17  2  0  0  0  0
  4  6  1  0  0  0  0
  4 18  1  0  0  0  0
  4 25  1  0  0  0  0
  5 13  1  0  0  0  0
  6 19  2  0  0  0  0
  7 22  1  0  0  0  0
  7 26  1  0  0  0  0
  8 26  1  0  0  0  0
  8 27  1  0  0  0  0
  9 10  1  0  0  0  0
  9 11  1  0  0  0  0
  9 13  2  0  0  0  0
 10 12  2  0  0  0  0
 11 14  1  0  0  0  0
 11 16  2  0  0  0  0
 12 15  1  0  0  0  0
 12 17  1  0  0  0  0
 14 20  2  0  0  0  0
 14 21  1  0  0  0  0
 15 18  2  0  0  0  0
 15 19  1  0  0  0  0
 20 23  1  0  0  0  0
 21 24  2  0  0  0  0
 22 23  2  0  0  0  0
 22 24  1  0  0  0  0
 27 28  2  0  0  0  0
 27 29  1  0  0  0  0
 28 31  1  0  0  0  0
 29 32  2  0  0  0  0
 30 31  2  0  0  0  0
 30 32  1  0  0  0  0
 30 33  1  0  0  0  0
M  END
> <Value>
5.899998417198648

> <Relation>
<

> <SourceURI>
mol:CHEMBL1982466

$$$$

Generated by Molecular Materials Informatics

 28 31  0  0  0  0  0  0  0  0999 V2000
    4.8598   -4.5925    0.0000 O   0  0  0  0  0  0  0  0  0  0  0  0
    8.8751    4.9376    0.0000 O   0  0  0  0  0  0  0  0  0  0  0  0
   11.7419    4.0534    0.0000 O   0  0  0  0  0  0  0  0  0  0  0  0
   -2.5265   -3.3947    0.0000 O   0  5  0  0  0  0  0  0  0  0  0  0
   -3.2921   -0.9121    0.0000 O   0  0  0  0  0  0  0  0  0  0  0  0
    3.4591    0.0450    0.0000 N   0  0  0  0  0  0  0  0  0  0  0  0
    2.7091   -3.2410    0.0000 N   0  0  0  0  0  0  0  0  0  0  0  0
   -2.1926   -1.9323    0.0000 N   0  3  0  0  0  0  0  0  0  0  0  0
    4.8105   -0.6059    0.0000 C   0  0  0  0  0  0  0  0  0  0  0  0
    5.1442   -2.0683    0.0000 C   0  0  0  0  0  0  0  0  0  0  0  0
    2.1076   -0.6059    0.0000 C   0  0  0  0  0  0  0  0  0  0  0  0
    1.7738   -2.0683    0.0000 C   0  0  0  0  0  0  0  0  0  0  0  0
    4.2091   -3.2410    0.0000 C   0  0  0  0  0  0  0  0  0  0  0  0
    7.3435   -0.0277    0.0000 C   0  0  0  0  0  0  0  0  0  0  0  0
    5.9100    0.4145    0.0000 C   0  0  0  0  0  0  0  0  0  0  0  0
    8.4430    0.9925    0.0000 C   0  0  0  0  0  0  0  0  0  0  0  0
    6.5777   -2.5105    0.0000 C   0  0  0  0  0  0  0  0  0  0  0  0
    0.3403   -2.5105    0.0000 C   0  0  0  0  0  0  0  0  0  0  0  0
    7.6773   -1.4901    0.0000 C   0  0  0  0  0  0  0  0  0  0  0  0
   -0.7592   -1.4901    0.0000 C   0  0  0  0  0  0  0  0  0  0  0  0
    1.0080    0.4145    0.0000 C   0  0  0  0  0  0  0  0  0  0  0  0
   -0.4253   -0.0277    0.0000 C   0  0  0  0  0  0  0  0  0  0  0  0
    8.1093    2.4550    0.0000 C   0  0  0  0  0  0  0  0  0  0  0  0
    9.2088    3.4752    0.0000 C   0  0  0  0  0  0  0  0  0  0  0  0
    9.8764    0.5505    0.0000 C   0  0  0  0  0  0  0  0  0  0  0  0
   10.6423    3.0331    0.0000 C   0  0  0  0  0  0  0  0  0  0  0  0
   10.9761    1.5707    0.0000 C   0  0  0  0  0  0  0  0  0  0  0  0
    9.9746    5.9580    0.0000 C   0  0  0  0  0  0  0  0  0  0  0  0
  1 13  2  0  0  0  0
  2 24  1  0  0  0  0
  2 28  1  0  0  0  0
  3 26  1  0  0  0  0
  4  8  1  0  0  0  0
  5  8  2  0  0  0  0
  6  9  1  0  0  0  0
  6 11  1  0  0  0  0
  7 12  1  0  0  0  0
  7 13  1  0  0  0  0
  8 20  1  0  0  0  0
  9 10  1  0  0  0  0
  9 15  2  0  0  0  0
 10 13  1  0  0  0  0
 10 17  2  0  0  0  0
 11 12  1  0  0  0  0
 11 21  2  0  0  0  0
 12 18  2  0  0  0  0
 14 15  1  0  0  0  0
 14 16  1  0  0  0  0
 14 19  2  0  0  0  0
 16 23  1  0  0  0  0
 16 25  2  0  0  0  0
 17 19  1  0  0  0  0
 18 20  1  0  0  0  0
 20 22  2  0  0  0  0
 21 22  1  0  0  0  0
 23 24  2  0  0  0  0
 24 26  1  0  0  0  0
 25 27  1  0  0  0  0
 26 27  2  0  0  0  0
M  CHG  2   4  -1   8   1
M  END
> <Value>
5.899998417198648

> <Relation>
<

> <SourceURI>
mol:CHEMBL1995740

$$$$

Generated by Molecular Materials Informatics

 28 31  0  0  0  0  0  0  0  0999 V2000
   -3.5030   -2.3834    0.0000 O   0  0  0  0  0  0  0  0  0  0  0  0
    0.3585    3.5206    0.0000 N   0  0  0  0  0  0  0  0  0  0  0  0
   -5.8973   -5.5483    0.0000 N   0  0  0  0  0  0  0  0  0  0  0  0
   -2.5761    0.4698    0.0000 N   0  0  0  0  0  0  0  0  0  0  0  0
    0.1249  -12.2367    0.0000 N   0  0  0  0  0  0  0  0  0  0  0  0
    1.7850    1.5571    0.0000 C   0  0  0  0  0  0  0  0  0  0  0  0
    0.3585    1.0935    0.0000 C   0  0  0  0  0  0  0  0  0  0  0  0
    1.7850    3.0571    0.0000 C   0  0  0  0  0  0  0  0  0  0  0  0
   -0.5231    2.3071    0.0000 C   0  0  0  0  0  0  0  0  0  0  0  0
    3.0841    0.8071    0.0000 C   0  0  0  0  0  0  0  0  0  0  0  0
   -0.1050   -0.3331    0.0000 C   0  0  0  0  0  0  0  0  0  0  0  0
    3.0841    3.8071    0.0000 C   0  0  0  0  0  0  0  0  0  0  0  0
   -1.5722   -0.6449    0.0000 C   0  0  0  0  0  0  0  0  0  0  0  0
    4.3832    1.5571    0.0000 C   0  0  0  0  0  0  0  0  0  0  0  0
    4.3832    3.0571    0.0000 C   0  0  0  0  0  0  0  0  0  0  0  0
   -3.9666   -3.8100    0.0000 C   0  0  0  0  0  0  0  0  0  0  0  0
   -3.4264   -6.3512    0.0000 C   0  0  0  0  0  0  0  0  0  0  0  0
   -2.0359   -2.0716    0.0000 C   0  0  0  0  0  0  0  0  0  0  0  0
   -2.9628   -4.9247    0.0000 C   0  0  0  0  0  0  0  0  0  0  0  0
   -5.4337   -4.1218    0.0000 C   0  0  0  0  0  0  0  0  0  0  0  0
   -4.8935   -6.6631    0.0000 C   0  0  0  0  0  0  0  0  0  0  0  0
   -2.4226   -7.4660    0.0000 C   0  0  0  0  0  0  0  0  0  0  0  0
   -1.8824  -10.0072    0.0000 C   0  0  0  0  0  0  0  0  0  0  0  0
   -2.8862   -8.8925    0.0000 C   0  0  0  0  0  0  0  0  0  0  0  0
   -2.3461  -11.4338    0.0000 C   0  0  0  0  0  0  0  0  0  0  0  0
   -0.4153   -9.6954    0.0000 C   0  0  0  0  0  0  0  0  0  0  0  0
   -1.3424  -12.5485    0.0000 C   0  0  0  0  0  0  0  0  0  0  0  0
    0.5885  -10.8102    0.0000 C   0  0  0  0  0  0  0  0  0  0  0  0
  1 16  1  0  0  0  0
  1 18  1  0  0  0  0
  2  8  1  0  0  0  0
  2  9  1  0  0  0  0
  3 20  1  0  0  0  0
  3 21  2  0  0  0  0
  4 13  1  0  0  0  0
  5 27  2  0  0  0  0
  5 28  1  0  0  0  0
  6  7  1  0  0  0  0
  6  8  1  0  0  0  0
  6 10  2  0  0  0  0
  7  9  2  0  0  0  0
  7 11  1  0  0  0  0
  8 12  2  0  0  0  0
 10 14  1  0  0  0  0
 11 13  1  0  0  0  0
 12 15  1  0  0  0  0
 13 18  1  0  0  0  0
 14 15  2  0  0  0  0
 16 19  1  0  0  0  0
 16 20  2  0  0  0  0
 17 19  2  0  0  0  0
 17 21  1  0  0  0  0
 22 17  1  0  0  0  0
 22 24  2  0  0  0  0
 23 24  1  0  0  0  0
 23 25  2  0  0  0  0
 23 26  1  0  0  0  0
 25 27  1  0  0  0  0
 26 28  2  0  0  0  0
M  END
> <Value>
5.899998417198648

> <Relation>
<

> <SourceURI>
mol:CHEMBL1974935

$$$$

Generated by Molecular Materials Informatics

 26 28  0  0  0  0  0  0  0  0999 V2000
   -6.6483    2.8658    0.0000 Cl  0  0  0  0  0  0  0  0  0  0  0  0
   -1.4521   -0.1342    0.0000 O   0  0  0  0  0  0  0  0  0  0  0  0
   -2.7512    5.1158    0.0000 O   0  0  0  0  0  0  0  0  0  0  0  0
   -1.4521    2.8658    0.0000 N   0  0  0  0  0  0  0  0  0  0  0  0
   -0.1530    5.1158    0.0000 N   0  0  0  0  0  0  0  0  0  0  0  0
    1.1459    7.3658    0.0000 N   0  0  0  0  0  0  0  0  0  0  0  0
   -1.4521    8.8658    0.0000 N   0  0  0  0  0  0  0  0  0  0  0  0
   -0.1530   12.6158    0.0000 N   0  0  0  0  0  0  0  0  0  0  0  0
   -2.7512    2.1158    0.0000 C   0  0  0  0  0  0  0  0  0  0  0  0
   -2.7512    0.6158    0.0000 C   0  0  0  0  0  0  0  0  0  0  0  0
   -5.3492    2.1158    0.0000 C   0  0  0  0  0  0  0  0  0  0  0  0
   -5.3492    0.6158    0.0000 C   0  0  0  0  0  0  0  0  0  0  0  0
   -4.0501    2.8658    0.0000 C   0  0  0  0  0  0  0  0  0  0  0  0
   -4.0501   -0.1342    0.0000 C   0  0  0  0  0  0  0  0  0  0  0  0
   -1.4521    4.3658    0.0000 C   0  0  0  0  0  0  0  0  0  0  0  0
   -1.4521   -1.6342    0.0000 C   0  0  0  0  0  0  0  0  0  0  0  0
   -0.1530    6.6158    0.0000 C   0  0  0  0  0  0  0  0  0  0  0  0
   -1.4521    7.3658    0.0000 C   0  0  0  0  0  0  0  0  0  0  0  0
   -0.1530    9.6158    0.0000 C   0  0  0  0  0  0  0  0  0  0  0  0
   -0.2387   -2.5158    0.0000 C   0  0  0  0  0  0  0  0  0  0  0  0
   -2.6656   -2.5158    0.0000 C   0  0  0  0  0  0  0  0  0  0  0  0
   -6.6483   -0.1342    0.0000 C   0  0  0  0  0  0  0  0  0  0  0  0
    1.1459    8.8658    0.0000 C   0  0  0  0  0  0  0  0  0  0  0  0
   -0.7021   -3.9425    0.0000 C   0  0  0  0  0  0  0  0  0  0  0  0
   -2.2021   -3.9425    0.0000 C   0  0  0  0  0  0  0  0  0  0  0  0
   -0.1530   11.1158    0.0000 C   0  0  0  0  0  0  0  0  0  0  0  0
  1 11  1  0  0  0  0
  2 10  1  0  0  0  0
  2 16  1  0  0  0  0
  3 15  2  0  0  0  0
  4  9  1  0  0  0  0
  4 15  1  0  0  0  0
  5 15  1  0  0  0  0
  5 17  1  0  0  0  0
  6 17  1  0  0  0  0
  6 23  2  0  0  0  0
  7 18  1  0  0  0  0
  7 19  2  0  0  0  0
  8 26  3  0  0  0  0
  9 10  2  0  0  0  0
  9 13  1  0  0  0  0
 10 14  1  0  0  0  0
 11 12  1  0  0  0  0
 11 13  2  0  0  0  0
 12 14  2  0  0  0  0
 12 22  1  0  0  0  0
 16 20  1  0  0  0  0
 16 21  1  0  0  0  0
 17 18  2  0  0  0  0
 19 23  1  0  0  0  0
 19 26  1  0  0  0  0
 20 24  1  0  0  0  0
 21 25  1  0  0  0  0
 24 25  1  0  0  0  0
M  END
> <Value>
5.899998417198648

> <Relation>
<

> <SourceURI>
mol:CHEMBL2001224

$$$$

Generated by Molecular Materials Informatics

 27 30  0  0  0  0  0  0  0  0999 V2000
    8.5799   -3.4019    0.0000 N   0  0  0  0  0  0  0  0  0  0  0  0
    9.5808   -4.5185    0.0000 C   0  0  0  0  0  0  0  0  0  0  0  0
    8.8274   -5.8156    0.0000 C   0  0  0  0  0  0  0  0  0  0  0  0
    7.3594   -5.4966    0.0000 N   0  0  0  0  0  0  0  0  0  0  0  0
    7.2142   -4.0155    0.0000 C   0  0  0  0  0  0  0  0  0  0  0  0
    2.0217   -1.0244    0.0000 S   0  3  0  0  0  0  0  0  0  0  0  0
    9.4370   -7.1878    0.0000 C   0  0  0  0  0  0  0  0  0  0  0  0
    5.9135   -3.2684    0.0000 C   0  0  0  0  0  0  0  0  0  0  0  0
    3.3224   -1.7715    0.0000 C   0  0  0  0  0  0  0  0  0  0  0  0
   11.0764   -4.3639    0.0000 C   0  0  0  0  0  0  0  0  0  0  0  0
    2.0164    0.4724    0.0000 O   0  5  0  0  0  0  0  0  0  0  0  0
   14.0499   -4.0537    0.0000 N   0  0  0  0  0  0  0  0  0  0  0  0
    5.9147   -1.7753    0.0000 C   0  0  0  0  0  0  0  0  0  0  0  0
    4.6283   -4.0153    0.0000 C   0  0  0  0  0  0  0  0  0  0  0  0
    3.3274   -3.2684    0.0000 C   0  0  0  0  0  0  0  0  0  0  0  0
    4.6178   -1.0215    0.0000 C   0  0  0  0  0  0  0  0  0  0  0  0
   10.9212   -7.3412    0.0000 C   0  0  0  0  0  0  0  0  0  0  0  0
    8.5465   -8.3885    0.0000 C   0  0  0  0  0  0  0  0  0  0  0  0
   10.6430   -9.9247    0.0000 C   0  0  0  0  0  0  0  0  0  0  0  0
    9.1458   -9.7636    0.0000 C   0  0  0  0  0  0  0  0  0  0  0  0
   11.5310   -8.7136    0.0000 C   0  0  0  0  0  0  0  0  0  0  0  0
   11.2490  -11.3034    0.0000 F   0  0  0  0  0  0  0  0  0  0  0  0
    0.7222   -1.7809    0.0000 C   0  0  0  0  0  0  0  0  0  0  0  0
   13.4343   -5.4298    0.0000 C   0  0  0  0  0  0  0  0  0  0  0  0
   13.1767   -2.8360    0.0000 C   0  0  0  0  0  0  0  0  0  0  0  0
   11.9466   -5.5714    0.0000 C   0  0  0  0  0  0  0  0  0  0  0  0
   11.6817   -2.9906    0.0000 C   0  0  0  0  0  0  0  0  0  0  0  0
  2  1  1  0  0  0  0
  3  2  2  0  0  0  0
  4  5  2  0  0  0  0
  5  1  1  0  0  0  0
  6  9  1  0  0  0  0
  7  3  1  0  0  0  0
  8  5  1  0  0  0  0
  9 15  2  0  0  0  0
 10  2  1  0  0  0  0
 11  6  1  0  0  0  0
 12 24  1  0  0  0  0
 13  8  1  0  0  0  0
 14  8  2  0  0  0  0
 15 14  1  0  0  0  0
 16 13  2  0  0  0  0
 17  7  2  0  0  0  0
 18  7  1  0  0  0  0
 19 20  1  0  0  0  0
 20 18  2  0  0  0  0
 21 17  1  0  0  0  0
 22 19  1  0  0  0  0
 23  6  1  0  0  0  0
 24 26  2  0  0  0  0
 25 27  1  0  0  0  0
 26 10  1  0  0  0  0
 27 10  2  0  0  0  0
  4  3  1  0  0  0  0
 16  9  1  0  0  0  0
 12 25  2  0  0  0  0
 19 21  2  0  0  0  0
M  CHG  2   6   1  11  -1
M  END
> <Value>
5.300000202445418

> <Relation>
<

> <SourceURI>
mol:CHEMBL10

$$$$

Generated by Molecular Materials Informatics

 30 34  0  0  0  0  0  0  0  0999 V2000
    5.9670    3.9892    0.0000 F   0  0  0  0  0  0  0  0  0  0  0  0
    0.8846    5.0696    0.0000 F   0  0  0  0  0  0  0  0  0  0  0  0
    8.9308   -0.5425    0.0000 O   0  0  0  0  0  0  0  0  0  0  0  0
   -3.5349    1.3269    0.0000 O   0  0  0  0  0  0  0  0  0  0  0  0
    6.5568   -1.0470    0.0000 N   0  0  0  0  0  0  0  0  0  0  0  0
    6.8107    1.3667    0.0000 N   0  0  0  0  0  0  0  0  0  0  0  0
    1.2895   -1.1868    0.0000 N   0  0  0  0  0  0  0  0  0  0  0  0
    2.5886   -0.4368    0.0000 N   0  0  0  0  0  0  0  0  0  0  0  0
   -0.1370   -3.1504    0.0000 N   0  0  0  0  0  0  0  0  0  0  0  0
   -1.0186   -1.9368    0.0000 N   0  0  0  0  0  0  0  0  0  0  0  0
    5.1867   -0.4368    0.0000 C   0  0  0  0  0  0  0  0  0  0  0  0
    5.3434    1.0548    0.0000 C   0  0  0  0  0  0  0  0  0  0  0  0
    3.8876   -1.1868    0.0000 C   0  0  0  0  0  0  0  0  0  0  0  0
    7.5606    0.0677    0.0000 C   0  0  0  0  0  0  0  0  0  0  0  0
    4.2287    2.0585    0.0000 C   0  0  0  0  0  0  0  0  0  0  0  0
    1.2895   -2.6868    0.0000 C   0  0  0  0  0  0  0  0  0  0  0  0
    7.3068   -2.3461    0.0000 C   0  0  0  0  0  0  0  0  0  0  0  0
   -0.1370   -0.7234    0.0000 C   0  0  0  0  0  0  0  0  0  0  0  0
    3.8876   -2.6868    0.0000 C   0  0  0  0  0  0  0  0  0  0  0  0
    4.5405    3.5256    0.0000 C   0  0  0  0  0  0  0  0  0  0  0  0
    2.5886   -3.4368    0.0000 C   0  0  0  0  0  0  0  0  0  0  0  0
    8.7741   -2.0341    0.0000 C   0  0  0  0  0  0  0  0  0  0  0  0
    2.8022    1.5949    0.0000 C   0  0  0  0  0  0  0  0  0  0  0  0
   -0.6004    0.7031    0.0000 C   0  0  0  0  0  0  0  0  0  0  0  0
    3.4258    4.5294    0.0000 C   0  0  0  0  0  0  0  0  0  0  0  0
    1.6875    2.5987    0.0000 C   0  0  0  0  0  0  0  0  0  0  0  0
    1.9993    4.0658    0.0000 C   0  0  0  0  0  0  0  0  0  0  0  0
   -2.0677    1.0149    0.0000 C   0  0  0  0  0  0  0  0  0  0  0  0
   -1.7558    2.4822    0.0000 C   0  0  0  0  0  0  0  0  0  0  0  0
   -2.3795   -0.4521    0.0000 C   0  0  0  0  0  0  0  0  0  0  0  0
  1 20  1  0  0  0  0
  2 27  1  0  0  0  0
  3 14  1  0  0  0  0
  3 22  1  0  0  0  0
  4 28  1  0  0  0  0
  5 11  1  0  0  0  0
  5 14  1  0  0  0  0
  5 17  1  0  0  0  0
  6 12  1  0  0  0  0
  6 14  2  0  0  0  0
  7  8  1  0  0  0  0
  7 16  1  0  0  0  0
  7 18  1  0  0  0  0
  8 13  2  0  0  0  0
  9 10  1  0  0  0  0
  9 16  2  0  0  0  0
 10 18  2  0  0  0  0
 11 12  2  0  0  0  0
 11 13  1  0  0  0  0
 12 15  1  0  0  0  0
 13 19  1  0  0  0  0
 15 20  1  0  0  0  0
 15 23  2  0  0  0  0
 16 21  1  0  0  0  0
 17 22  2  0  0  0  0
 18 24  1  0  0  0  0
 19 21  2  0  0  0  0
 20 25  2  0  0  0  0
 23 26  1  0  0  0  0
 24 28  1  0  0  0  0
 25 27  1  0  0  0  0
 26 27  2  0  0  0  0
 28 29  1  0  0  0  0
 28 30  1  0  0  0  0
M  END
> <Value>
5.899998417198648

> <Relation>
<

> <SourceURI>
mol:CHEMBL1976732

$$$$

Generated by Molecular Materials Informatics

 28 31  0  0  0  0  0  0  0  0999 V2000
   -4.6828    2.2382    0.0000 Cl  0  0  0  0  0  0  0  0  0  0  0  0
   -0.5915   10.6651    0.0000 S   0  0  0  0  0  0  0  0  0  0  0  0
    0.4123   11.7797    0.0000 O   0  0  0  0  0  0  0  0  0  0  0  0
   -1.7062   11.6688    0.0000 O   0  0  0  0  0  0  0  0  0  0  0  0
   -0.2811    1.3027    0.0000 N   0  0  0  0  0  0  0  0  0  0  0  0
   -0.8213   -3.6656    0.0000 N   0  0  0  0  0  0  0  0  0  0  0  0
   -2.7520    0.4998    0.0000 N   0  0  0  0  0  0  0  0  0  0  0  0
    1.9043   -3.9522    0.0000 N   0  0  0  0  0  0  0  0  0  0  0  0
    0.2591    3.8440    0.0000 N   0  0  0  0  0  0  0  0  0  0  0  0
   -1.5951    9.5504    0.0000 N   0  0  0  0  0  0  0  0  0  0  0  0
   -0.8213   -1.2387    0.0000 C   0  0  0  0  0  0  0  0  0  0  0  0
    0.6053   -1.7022    0.0000 C   0  0  0  0  0  0  0  0  0  0  0  0
   -1.2849    0.1880    0.0000 C   0  0  0  0  0  0  0  0  0  0  0  0
    0.6053   -3.2022    0.0000 C   0  0  0  0  0  0  0  0  0  0  0  0
   -1.7029   -2.4522    0.0000 C   0  0  0  0  0  0  0  0  0  0  0  0
   -0.7448    2.7293    0.0000 C   0  0  0  0  0  0  0  0  0  0  0  0
    1.9043   -0.9522    0.0000 C   0  0  0  0  0  0  0  0  0  0  0  0
   -3.2157    1.9264    0.0000 C   0  0  0  0  0  0  0  0  0  0  0  0
   -2.2118    3.0411    0.0000 C   0  0  0  0  0  0  0  0  0  0  0  0
   -0.2046    5.2706    0.0000 C   0  0  0  0  0  0  0  0  0  0  0  0
    3.2033   -1.7022    0.0000 C   0  0  0  0  0  0  0  0  0  0  0  0
    3.2033   -3.2022    0.0000 C   0  0  0  0  0  0  0  0  0  0  0  0
   -1.1317    8.1237    0.0000 C   0  0  0  0  0  0  0  0  0  0  0  0
   -1.6717    5.5824    0.0000 C   0  0  0  0  0  0  0  0  0  0  0  0
    0.7993    6.3853    0.0000 C   0  0  0  0  0  0  0  0  0  0  0  0
   -2.1353    7.0089    0.0000 C   0  0  0  0  0  0  0  0  0  0  0  0
    0.3356    7.8119    0.0000 C   0  0  0  0  0  0  0  0  0  0  0  0
    0.5233    9.6613    0.0000 C   0  0  0  0  0  0  0  0  0  0  0  0
  1 18  1  0  0  0  0
  2  3  2  0  0  0  0
  2  4  2  0  0  0  0
  2 10  1  0  0  0  0
  2 28  1  0  0  0  0
  5 13  2  0  0  0  0
  5 16  1  0  0  0  0
  6 14  1  0  0  0  0
  6 15  1  0  0  0  0
  7 13  1  0  0  0  0
  7 18  2  0  0  0  0
  8 14  2  0  0  0  0
  8 22  1  0  0  0  0
  9 16  1  0  0  0  0
  9 20  1  0  0  0  0
 10 23  1  0  0  0  0
 11 12  1  0  0  0  0
 11 13  1  0  0  0  0
 11 15  2  0  0  0  0
 12 14  1  0  0  0  0
 12 17  2  0  0  0  0
 16 19  2  0  0  0  0
 17 21  1  0  0  0  0
 18 19  1  0  0  0  0
 20 24  1  0  0  0  0
 20 25  1  0  0  0  0
 21 22  2  0  0  0  0
 23 26  1  0  0  0  0
 23 27  1  0  0  0  0
 24 26  1  0  0  0  0
 25 27  1  0  0  0  0
M  END
> <Value>
7.400007822415902

> <Relation>
=

> <SourceURI>
mol:CHEMBL2005216

$$$$

Generated by Molecular Materials Informatics

 27 30  0  0  0  0  0  0  0  0999 V2000
    0.6493   -4.4062    0.0000 Cl  0  0  0  0  0  0  0  0  0  0  0  0
    3.2473   -8.9062    0.0000 O   0  0  0  0  0  0  0  0  0  0  0  0
    0.6493    0.0938    0.0000 N   0  0  0  0  0  0  0  0  0  0  0  0
    1.9482    2.3438    0.0000 N   0  0  0  0  0  0  0  0  0  0  0  0
    3.2473    0.0938    0.0000 N   0  0  0  0  0  0  0  0  0  0  0  0
   -2.0763    0.3803    0.0000 N   0  0  0  0  0  0  0  0  0  0  0  0
    3.2473   -5.9062    0.0000 N   0  0  0  0  0  0  0  0  0  0  0  0
   -0.6498    2.3438    0.0000 C   0  0  0  0  0  0  0  0  0  0  0  0
   -0.6498    0.8438    0.0000 C   0  0  0  0  0  0  0  0  0  0  0  0
    0.6493    3.0938    0.0000 C   0  0  0  0  0  0  0  0  0  0  0  0
    1.9482    0.8438    0.0000 C   0  0  0  0  0  0  0  0  0  0  0  0
    3.2473   -4.4062    0.0000 C   0  0  0  0  0  0  0  0  0  0  0  0
    3.2473   -1.4062    0.0000 C   0  0  0  0  0  0  0  0  0  0  0  0
    1.9482   -3.6562    0.0000 C   0  0  0  0  0  0  0  0  0  0  0  0
   -2.0763    2.8072    0.0000 C   0  0  0  0  0  0  0  0  0  0  0  0
    1.9482   -2.1562    0.0000 C   0  0  0  0  0  0  0  0  0  0  0  0
    4.5464   -3.6562    0.0000 C   0  0  0  0  0  0  0  0  0  0  0  0
    0.6493    4.5938    0.0000 C   0  0  0  0  0  0  0  0  0  0  0  0
    4.5464   -2.1562    0.0000 C   0  0  0  0  0  0  0  0  0  0  0  0
   -2.9580    1.5938    0.0000 C   0  0  0  0  0  0  0  0  0  0  0  0
    1.9482   -6.6562    0.0000 C   0  0  0  0  0  0  0  0  0  0  0  0
    4.5464   -6.6562    0.0000 C   0  0  0  0  0  0  0  0  0  0  0  0
    1.9482    5.3437    0.0000 C   0  0  0  0  0  0  0  0  0  0  0  0
    1.9482   -8.1562    0.0000 C   0  0  0  0  0  0  0  0  0  0  0  0
    4.5464   -8.1562    0.0000 C   0  0  0  0  0  0  0  0  0  0  0  0
    1.9482    6.8438    0.0000 C   0  0  0  0  0  0  0  0  0  0  0  0
    3.2473    4.5938    0.0000 C   0  0  0  0  0  0  0  0  0  0  0  0
  1 14  1  0  0  0  0
  2 24  1  0  0  0  0
  2 25  1  0  0  0  0
  3  9  1  0  0  0  0
  3 11  2  0  0  0  0
  4 10  2  0  0  0  0
  4 11  1  0  0  0  0
  5 11  1  0  0  0  0
  5 13  1  0  0  0  0
  6  9  1  0  0  0  0
  6 20  1  0  0  0  0
  7 12  1  0  0  0  0
  7 21  1  0  0  0  0
  7 22  1  0  0  0  0
  8  9  2  0  0  0  0
  8 10  1  0  0  0  0
  8 15  1  0  0  0  0
 10 18  1  0  0  0  0
 12 14  1  0  0  0  0
 12 17  2  0  0  0  0
 13 16  1  0  0  0  0
 13 19  2  0  0  0  0
 14 16  2  0  0  0  0
 15 20  2  0  0  0  0
 17 19  1  0  0  0  0
 18 23  1  0  0  0  0
 21 24  1  0  0  0  0
 22 25  1  0  0  0  0
 23 26  1  0  0  0  0
 23 27  1  0  0  0  0
M  END
> <Value>
5.300000202445418

> <Relation>
<

> <SourceURI>
mol:CHEMBL1980763

$$$$

Generated by Molecular Materials Informatics

 27 30  0  0  0  0  0  0  0  0999 V2000
   -4.2641    5.0304    0.0000 O   0  0  0  0  0  0  0  0  0  0  0  0
   -4.1876    8.9983    0.0000 O   0  0  0  0  0  0  0  0  0  0  0  0
   -0.9428   -3.4149    0.0000 N   0  0  0  0  0  0  0  0  0  0  0  0
   -2.3334    3.2919    0.0000 N   0  0  0  0  0  0  0  0  0  0  0  0
    1.7828   -3.7014    0.0000 N   0  0  0  0  0  0  0  0  0  0  0  0
   -1.7932    5.8332    0.0000 N   0  0  0  0  0  0  0  0  0  0  0  0
   -0.9428   -0.9879    0.0000 C   0  0  0  0  0  0  0  0  0  0  0  0
    0.4837   -1.4514    0.0000 C   0  0  0  0  0  0  0  0  0  0  0  0
   -1.4065    0.4388    0.0000 C   0  0  0  0  0  0  0  0  0  0  0  0
    0.4837   -2.9514    0.0000 C   0  0  0  0  0  0  0  0  0  0  0  0
   -1.8245   -2.2014    0.0000 C   0  0  0  0  0  0  0  0  0  0  0  0
    1.7828   -0.7014    0.0000 C   0  0  0  0  0  0  0  0  0  0  0  0
   -0.4027    1.5535    0.0000 C   0  0  0  0  0  0  0  0  0  0  0  0
   -2.8736    0.7506    0.0000 C   0  0  0  0  0  0  0  0  0  0  0  0
   -2.7970    4.7184    0.0000 C   0  0  0  0  0  0  0  0  0  0  0  0
   -0.8663    2.9801    0.0000 C   0  0  0  0  0  0  0  0  0  0  0  0
   -3.3372    2.1772    0.0000 C   0  0  0  0  0  0  0  0  0  0  0  0
    3.0817   -1.4514    0.0000 C   0  0  0  0  0  0  0  0  0  0  0  0
   -2.2568    7.2597    0.0000 C   0  0  0  0  0  0  0  0  0  0  0  0
    3.0817   -2.9514    0.0000 C   0  0  0  0  0  0  0  0  0  0  0  0
   -1.2532    8.3744    0.0000 C   0  0  0  0  0  0  0  0  0  0  0  0
   -3.7241    7.5717    0.0000 C   0  0  0  0  0  0  0  0  0  0  0  0
   -1.7167    9.8012    0.0000 C   0  0  0  0  0  0  0  0  0  0  0  0
    0.2141    8.0626    0.0000 C   0  0  0  0  0  0  0  0  0  0  0  0
   -0.7130   10.9159    0.0000 C   0  0  0  0  0  0  0  0  0  0  0  0
    1.2179    9.1774    0.0000 C   0  0  0  0  0  0  0  0  0  0  0  0
    0.7543   10.6039    0.0000 C   0  0  0  0  0  0  0  0  0  0  0  0
  1 15  2  0  0  0  0
  2 22  1  0  0  0  0
  3 10  1  0  0  0  0
  3 11  1  0  0  0  0
  4 15  1  0  0  0  0
  4 16  1  0  0  0  0
  4 17  1  0  0  0  0
  5 10  2  0  0  0  0
  5 20  1  0  0  0  0
  6 15  1  0  0  0  0
  6 19  1  0  0  0  0
  7  8  1  0  0  0  0
  7  9  1  0  0  0  0
  7 11  2  0  0  0  0
  8 10  1  0  0  0  0
  8 12  2  0  0  0  0
  9 13  2  0  0  0  0
  9 14  1  0  0  0  0
 12 18  1  0  0  0  0
 13 16  1  0  0  0  0
 14 17  1  0  0  0  0
 18 20  2  0  0  0  0
 19 21  1  0  0  0  0
 19 22  1  0  0  0  0
 21 23  2  0  0  0  0
 21 24  1  0  0  0  0
 23 25  1  0  0  0  0
 24 26  2  0  0  0  0
 25 27  2  0  0  0  0
 26 27  1  0  0  0  0
M  END
> <Value>
5.899998417198648

> <Relation>
<

> <SourceURI>
mol:CHEMBL1964937

$$$$

Generated by Molecular Materials Informatics

 25 28  0  0  0  0  0  0  0  0999 V2000
   -4.0270   -4.8000    0.0000 O   0  0  0  0  0  0  0  0  0  0  0  0
    1.1691   -1.8000    0.0000 N   0  0  0  0  0  0  0  0  0  0  0  0
   -0.1300    0.4500    0.0000 N   0  0  0  0  0  0  0  0  0  0  0  0
    1.1691    2.7000    0.0000 N   0  0  0  0  0  0  0  0  0  0  0  0
    2.4682    0.4500    0.0000 C   0  0  0  0  0  0  0  0  0  0  0  0
    1.1691   -0.3000    0.0000 C   0  0  0  0  0  0  0  0  0  0  0  0
    2.4682    1.9500    0.0000 C   0  0  0  0  0  0  0  0  0  0  0  0
   -0.1300   -2.5500    0.0000 C   0  0  0  0  0  0  0  0  0  0  0  0
    3.7671   -0.3000    0.0000 C   0  0  0  0  0  0  0  0  0  0  0  0
    3.7671    2.7000    0.0000 C   0  0  0  0  0  0  0  0  0  0  0  0
   -0.1300    1.9500    0.0000 C   0  0  0  0  0  0  0  0  0  0  0  0
   -2.7279   -4.0500    0.0000 C   0  0  0  0  0  0  0  0  0  0  0  0
   -0.1300   -4.0500    0.0000 C   0  0  0  0  0  0  0  0  0  0  0  0
   -1.4289   -1.8000    0.0000 C   0  0  0  0  0  0  0  0  0  0  0  0
    5.0662    0.4500    0.0000 C   0  0  0  0  0  0  0  0  0  0  0  0
    5.0662    1.9500    0.0000 C   0  0  0  0  0  0  0  0  0  0  0  0
   -1.4289   -4.8000    0.0000 C   0  0  0  0  0  0  0  0  0  0  0  0
   -2.7279   -2.5500    0.0000 C   0  0  0  0  0  0  0  0  0  0  0  0
   -5.3261   -7.0500    0.0000 C   0  0  0  0  0  0  0  0  0  0  0  0
   -4.0270   -6.3000    0.0000 C   0  0  0  0  0  0  0  0  0  0  0  0
   -5.3261   -8.5500    0.0000 C   0  0  0  0  0  0  0  0  0  0  0  0
   -6.6250   -6.3000    0.0000 C   0  0  0  0  0  0  0  0  0  0  0  0
   -6.6250   -9.3000    0.0000 C   0  0  0  0  0  0  0  0  0  0  0  0
   -7.9241   -7.0500    0.0000 C   0  0  0  0  0  0  0  0  0  0  0  0
   -7.9241   -8.5500    0.0000 C   0  0  0  0  0  0  0  0  0  0  0  0
  1 12  1  0  0  0  0
  1 20  1  0  0  0  0
  2  6  1  0  0  0  0
  2  8  1  0  0  0  0
  3  6  2  0  0  0  0
  3 11  1  0  0  0  0
  4  7  1  0  0  0  0
  4 11  2  0  0  0  0
  5  6  1  0  0  0  0
  5  7  1  0  0  0  0
  5  9  2  0  0  0  0
  7 10  2  0  0  0  0
  8 13  2  0  0  0  0
  8 14  1  0  0  0  0
  9 15  1  0  0  0  0
 10 16  1  0  0  0  0
 12 17  2  0  0  0  0
 12 18  1  0  0  0  0
 13 17  1  0  0  0  0
 14 18  2  0  0  0  0
 15 16  2  0  0  0  0
 19 20  1  0  0  0  0
 19 21  2  0  0  0  0
 19 22  1  0  0  0  0
 21 23  1  0  0  0  0
 22 24  2  0  0  0  0
 23 25  2  0  0  0  0
 24 25  1  0  0  0  0
M  END
> <Value>
5.899998417198648

> <Relation>
<

> <SourceURI>
mol:CHEMBL1980163

$$$$

Generated by Molecular Materials Informatics

 31 36  0  0  0  0  0  0  0  0999 V2000
   11.0835   -2.9690    0.0000 C   0  0  0  0  0  0  0  0  0  0  0  0
   11.7985   -1.6457    0.0000 N   0  0  0  0  0  0  0  0  0  0  0  0
   11.0023   -0.3624    0.0000 C   0  0  0  0  0  0  0  0  0  0  0  0
    9.5044   -0.4109    0.0000 N   0  0  0  0  0  0  0  0  0  0  0  0
    9.5828   -3.0113    0.0000 C   0  0  0  0  0  0  0  0  0  0  0  0
    8.7916   -1.7380    0.0000 C   0  0  0  0  0  0  0  0  0  0  0  0
    7.3364   -2.0969    0.0000 C   0  0  0  0  0  0  0  0  0  0  0  0
    7.2278   -3.5923    0.0000 C   0  0  0  0  0  0  0  0  0  0  0  0
    8.6164   -4.1570    0.0000 N   0  0  0  0  0  0  0  0  0  0  0  0
   11.7104    0.9604    0.0000 N   0  0  0  0  0  0  0  0  0  0  0  0
    8.9758   -5.6135    0.0000 C   0  0  0  0  0  0  0  0  0  0  0  0
   10.4169   -6.0306    0.0000 C   0  0  0  0  0  0  0  0  0  0  0  0
   10.7761   -7.4873    0.0000 N   0  0  0  0  0  0  0  0  0  0  0  0
   -1.0102   -7.3360    0.0000 C   0  0  0  0  0  0  0  0  0  0  0  0
    0.1911   -8.2343    0.0000 C   0  0  0  0  0  0  0  0  0  0  0  0
    1.5671   -7.6400    0.0000 C   0  0  0  0  0  0  0  0  0  0  0  0
   -0.8435   -5.8517    0.0000 C   0  0  0  0  0  0  0  0  0  0  0  0
    0.5276   -5.2527    0.0000 C   0  0  0  0  0  0  0  0  0  0  0  0
    1.7514   -6.1462    0.0000 C   0  0  0  0  0  0  0  0  0  0  0  0
    2.9796   -5.2585    0.0000 S   0  0  0  0  0  0  0  0  0  0  0  0
    2.5150   -3.8159    0.0000 C   0  0  0  0  0  0  0  0  0  0  0  0
    0.9995   -3.8125    0.0000 C   0  0  0  0  0  0  0  0  0  0  0  0
    3.3998   -2.6043    0.0000 C   0  0  0  0  0  0  0  0  0  0  0  0
    4.8641   -2.9037    0.0000 C   0  0  0  0  0  0  0  0  0  0  0  0
    5.8685   -1.7895    0.0000 C   0  0  0  0  0  0  0  0  0  0  0  0
    5.4002   -0.3655    0.0000 C   0  0  0  0  0  0  0  0  0  0  0  0
    2.9291   -1.1863    0.0000 C   0  0  0  0  0  0  0  0  0  0  0  0
    3.9199   -0.0604    0.0000 C   0  0  0  0  0  0  0  0  0  0  0  0
    3.1553    1.2298    0.0000 C   0  0  0  0  0  0  0  0  0  0  0  0
    1.6916    0.9015    0.0000 N   0  0  0  0  0  0  0  0  0  0  0  0
    1.5522   -0.5920    0.0000 N   0  0  0  0  0  0  0  0  0  0  0  0
  7  8  2  0  0  0  0
  8  9  1  0  0  0  0
  9  5  1  0  0  0  0
  3 10  1  0  0  0  0
  5  1  1  0  0  0  0
  1  2  2  0  0  0  0
  2  3  1  0  0  0  0
  9 11  1  0  0  0  0
  3  4  2  0  0  0  0
 11 12  1  0  0  0  0
  4  6  1  0  0  0  0
 12 13  1  0  0  0  0
  5  6  2  0  0  0  0
  6  7  1  0  0  0  0
 14 15  2  0  0  0  0
 18 17  2  0  0  0  0
 19 20  1  0  0  0  0
 20 21  1  0  0  0  0
 21 22  2  0  0  0  0
 22 18  1  0  0  0  0
 17 14  1  0  0  0  0
 21 23  1  0  0  0  0
 24 25  2  0  0  0  0
 18 19  1  0  0  0  0
 25 26  1  0  0  0  0
 26 28  2  0  0  0  0
 27 23  2  0  0  0  0
 23 24  1  0  0  0  0
 27 28  1  0  0  0  0
 15 16  1  0  0  0  0
 28 29  1  0  0  0  0
 29 30  2  0  0  0  0
 30 31  1  0  0  0  0
 31 27  1  0  0  0  0
 16 19  2  0  0  0  0
 25  7  1  0  0  0  0
M  END
> <Value>
6.199998172182031

> <Relation>
=

> <SourceURI>
mol:CHEMBL590109

$$$$

Generated by Molecular Materials Informatics

 18 20  0  0  0  0  0  0  0  0999 V2000
    5.1874   -1.2146    0.0000 O   0  0  0  0  0  0  0  0  0  0  0  0
    2.5895    1.7854    0.0000 N   0  0  0  0  0  0  0  0  0  0  0  0
    1.2904    4.0353    0.0000 N   0  0  0  0  0  0  0  0  0  0  0  0
   -1.4352    3.7490    0.0000 N   0  0  0  0  0  0  0  0  0  0  0  0
    1.2904    1.0354    0.0000 C   0  0  0  0  0  0  0  0  0  0  0  0
   -0.0087    1.7854    0.0000 C   0  0  0  0  0  0  0  0  0  0  0  0
    1.2904   -0.4646    0.0000 C   0  0  0  0  0  0  0  0  0  0  0  0
   -0.0087    3.2854    0.0000 C   0  0  0  0  0  0  0  0  0  0  0  0
    2.5895   -1.2146    0.0000 C   0  0  0  0  0  0  0  0  0  0  0  0
   -1.4352    1.3219    0.0000 C   0  0  0  0  0  0  0  0  0  0  0  0
   -0.0087   -1.2146    0.0000 C   0  0  0  0  0  0  0  0  0  0  0  0
    2.5895    3.2854    0.0000 C   0  0  0  0  0  0  0  0  0  0  0  0
   -2.3168    2.5354    0.0000 C   0  0  0  0  0  0  0  0  0  0  0  0
    3.8884   -0.4646    0.0000 C   0  0  0  0  0  0  0  0  0  0  0  0
    2.5895   -2.7146    0.0000 C   0  0  0  0  0  0  0  0  0  0  0  0
   -0.0087   -2.7146    0.0000 C   0  0  0  0  0  0  0  0  0  0  0  0
    1.2904   -3.4645    0.0000 C   0  0  0  0  0  0  0  0  0  0  0  0
    3.8884    1.0354    0.0000 C   0  0  0  0  0  0  0  0  0  0  0  0
  1 14  2  0  0  0  0
  2  5  2  0  0  0  0
  2 12  1  0  0  0  0
  3  8  1  0  0  0  0
  3 12  2  0  0  0  0
  4  8  1  0  0  0  0
  4 13  1  0  0  0  0
  5  6  1  0  0  0  0
  5  7  1  0  0  0  0
  6  8  2  0  0  0  0
  6 10  1  0  0  0  0
  7  9  1  0  0  0  0
  7 11  2  0  0  0  0
  9 14  1  0  0  0  0
  9 15  2  0  0  0  0
 10 13  2  0  0  0  0
 11 16  1  0  0  0  0
 14 18  1  0  0  0  0
 15 17  1  0  0  0  0
 16 17  2  0  0  0  0
M  END
> <Value>
4.200000030616179

> <Relation>
=

> <SourceURI>
mol:CHEMBL1977931

$$$$

Generated by Molecular Materials Informatics

 19 21  0  0  0  0  0  0  0  0999 V2000
    2.7724    3.5866    0.0000 O   0  0  0  0  0  0  0  0  0  0  0  0
    7.1742    2.6512    0.0000 O   0  0  0  0  0  0  0  0  0  0  0  0
    2.2322    1.0453    0.0000 N   0  0  0  0  0  0  0  0  0  0  0  0
    1.4822   -1.2629    0.0000 N   0  0  0  0  0  0  0  0  0  0  0  0
    5.0900   -3.5463    0.0000 N   0  0  0  0  0  0  0  0  0  0  0  0
    2.6958   -0.3812    0.0000 C   0  0  0  0  0  0  0  0  0  0  0  0
    0.7322    1.0453    0.0000 C   0  0  0  0  0  0  0  0  0  0  0  0
    3.2360    2.1601    0.0000 C   0  0  0  0  0  0  0  0  0  0  0  0
    4.1631   -0.6930    0.0000 C   0  0  0  0  0  0  0  0  0  0  0  0
    0.2687   -0.3812    0.0000 C   0  0  0  0  0  0  0  0  0  0  0  0
    4.7031    1.8482    0.0000 C   0  0  0  0  0  0  0  0  0  0  0  0
    5.1667    0.4217    0.0000 C   0  0  0  0  0  0  0  0  0  0  0  0
   -0.2715    2.1601    0.0000 C   0  0  0  0  0  0  0  0  0  0  0  0
   -1.1986   -0.6930    0.0000 C   0  0  0  0  0  0  0  0  0  0  0  0
    4.6266   -2.1196    0.0000 C   0  0  0  0  0  0  0  0  0  0  0  0
    5.7069    2.9630    0.0000 C   0  0  0  0  0  0  0  0  0  0  0  0
   -1.7387    1.8482    0.0000 C   0  0  0  0  0  0  0  0  0  0  0  0
    6.6340    0.1097    0.0000 C   0  0  0  0  0  0  0  0  0  0  0  0
   -2.2022    0.4217    0.0000 C   0  0  0  0  0  0  0  0  0  0  0  0
  1  8  1  0  0  0  0
  2 16  2  0  0  0  0
  3  6  1  0  0  0  0
  3  7  1  0  0  0  0
  3  8  1  0  0  0  0
  4  6  2  0  0  0  0
  4 10  1  0  0  0  0
  5 15  3  0  0  0  0
  6  9  1  0  0  0  0
  7 10  1  0  0  0  0
  7 13  2  0  0  0  0
  8 11  2  0  0  0  0
  9 12  2  0  0  0  0
  9 15  1  0  0  0  0
 10 14  2  0  0  0  0
 11 12  1  0  0  0  0
 11 16  1  0  0  0  0
 12 18  1  0  0  0  0
 13 17  1  0  0  0  0
 14 19  1  0  0  0  0
 17 19  2  0  0  0  0
M  END
> <Value>
6.0

> <Relation>
=

> <SourceURI>
mol:CHEMBL1989856

$$$$

Generated by Molecular Materials Informatics

 23 24  0  0  0  0  0  0  0  0999 V2000
   -1.1695    2.1454    0.0000 O   0  0  0  0  0  0  0  0  0  0  0  0
    1.3910   -0.4154    0.0000 O   0  0  0  0  0  0  0  0  0  0  0  0
    2.6901    6.9559    0.0000 O   0  0  0  0  0  0  0  0  0  0  0  0
    1.3910    4.7059    0.0000 N   0  0  0  0  0  0  0  0  0  0  0  0
    3.9518    2.1454    0.0000 N   0  0  0  0  0  0  0  0  0  0  0  0
   -2.5061    6.9559    0.0000 N   0  0  0  0  0  0  0  0  0  0  0  0
    1.3910    3.2059    0.0000 C   0  0  0  0  0  0  0  0  0  0  0  0
    2.4518    2.1454    0.0000 C   0  0  0  0  0  0  0  0  0  0  0  0
    0.3305    2.1454    0.0000 C   0  0  0  0  0  0  0  0  0  0  0  0
    1.3910    1.0846    0.0000 C   0  0  0  0  0  0  0  0  0  0  0  0
    0.0921    5.4559    0.0000 C   0  0  0  0  0  0  0  0  0  0  0  0
    2.6901    5.4559    0.0000 C   0  0  0  0  0  0  0  0  0  0  0  0
    4.7018    0.8463    0.0000 C   0  0  0  0  0  0  0  0  0  0  0  0
    6.2018    0.8463    0.0000 C   0  0  0  0  0  0  0  0  0  0  0  0
    0.0921    6.9559    0.0000 C   0  0  0  0  0  0  0  0  0  0  0  0
   -1.2070    4.7059    0.0000 C   0  0  0  0  0  0  0  0  0  0  0  0
    3.9892    4.7059    0.0000 C   0  0  0  0  0  0  0  0  0  0  0  0
   -1.2070    7.7059    0.0000 C   0  0  0  0  0  0  0  0  0  0  0  0
   -2.5061    5.4559    0.0000 C   0  0  0  0  0  0  0  0  0  0  0  0
    3.9518   -0.4528    0.0000 C   0  0  0  0  0  0  0  0  0  0  0  0
    7.7018    0.8463    0.0000 C   0  0  0  0  0  0  0  0  0  0  0  0
    6.2018   -0.6537    0.0000 C   0  0  0  0  0  0  0  0  0  0  0  0
    6.2018    2.3463    0.0000 C   0  0  0  0  0  0  0  0  0  0  0  0
  1  9  2  0  0  0  0
  2 10  2  0  0  0  0
  3 12  2  0  0  0  0
  4  7  1  0  0  0  0
  4 11  1  0  0  0  0
  4 12  1  0  0  0  0
  5  8  1  0  0  0  0
  5 13  1  0  0  0  0
  6 18  2  0  0  0  0
  6 19  1  0  0  0  0
  7  8  2  0  0  0  0
  7  9  1  0  0  0  0
  8 10  1  0  0  0  0
  9 10  1  0  0  0  0
 11 15  2  0  0  0  0
 11 16  1  0  0  0  0
 12 17  1  0  0  0  0
 13 14  1  0  0  0  0
 13 20  1  0  0  0  0
 14 21  1  0  0  0  0
 14 22  1  0  0  0  0
 14 23  1  0  0  0  0
 15 18  1  0  0  0  0
 16 19  2  0  0  0  0
M  END
> <Value>
7.400007822415902

> <Relation>
=

> <SourceURI>
mol:CHEMBL2005899

$$$$

Generated by Molecular Materials Informatics

 21 22  0  0  0  0  0  0  0  0999 V2000
   -3.1168    0.4857    0.0000 C   0  0  0  0  0  0  0  0  0  0  0  0
   -4.4872   -0.1243    0.0000 S   0  0  0  0  0  0  0  0  0  0  0  0
   -3.2735    1.9775    0.0000 N   0  0  0  0  0  0  0  0  0  0  0  0
   -1.8178   -0.2643    0.0000 N   0  0  0  0  0  0  0  0  0  0  0  0
   -5.4908    0.9904    0.0000 C   0  0  0  0  0  0  0  0  0  0  0  0
   -4.7408    2.2893    0.0000 C   0  0  0  0  0  0  0  0  0  0  0  0
   -0.5187    0.4857    0.0000 C   0  0  0  0  0  0  0  0  0  0  0  0
   -6.9826    0.8335    0.0000 N   0  3  0  0  0  0  0  0  0  0  0  0
    0.7802   -0.2643    0.0000 N   0  0  0  0  0  0  0  0  0  0  0  0
   -0.5187    1.9856    0.0000 O   0  0  0  0  0  0  0  0  0  0  0  0
   -7.8642    2.0471    0.0000 O   0  5  0  0  0  0  0  0  0  0  0  0
   -7.5925   -0.5369    0.0000 O   0  0  0  0  0  0  0  0  0  0  0  0
    2.0792    0.4857    0.0000 C   0  0  0  0  0  0  0  0  0  0  0  0
    3.3783   -0.2643    0.0000 C   0  0  0  0  0  0  0  0  0  0  0  0
    4.6774    0.4857    0.0000 C   0  0  0  0  0  0  0  0  0  0  0  0
    3.3783   -1.7643    0.0000 C   0  0  0  0  0  0  0  0  0  0  0  0
    5.9762   -0.2643    0.0000 C   0  0  0  0  0  0  0  0  0  0  0  0
    4.6774   -2.5143    0.0000 C   0  0  0  0  0  0  0  0  0  0  0  0
    5.9762   -1.7643    0.0000 C   0  0  0  0  0  0  0  0  0  0  0  0
    7.2753   -2.5143    0.0000 O   0  0  0  0  0  0  0  0  0  0  0  0
    8.5744   -1.7643    0.0000 C   0  0  0  0  0  0  0  0  0  0  0  0
  1  2  1  0  0  0  0
  1  3  2  0  0  0  0
  1  4  1  0  0  0  0
  5  2  1  0  0  0  0
  6  3  1  0  0  0  0
  7  4  1  0  0  0  0
  5  6  2  0  0  0  0
  5  8  1  0  0  0  0
  7  9  1  0  0  0  0
  7 10  2  0  0  0  0
  8 11  1  0  0  0  0
  8 12  2  0  0  0  0
 13  9  1  0  0  0  0
 13 14  1  0  0  0  0
 14 15  2  0  0  0  0
 14 16  1  0  0  0  0
 15 17  1  0  0  0  0
 16 18  2  0  0  0  0
 17 19  2  0  0  0  0
 18 19  1  0  0  0  0
 19 20  1  0  0  0  0
 21 20  1  0  0  0  0
M  CHG  2   8   1  11  -1
M  END
> <Value>
5.899998417198648

> <Relation>
<

> <SourceURI>
mol:CHEMBL259850

$$$$

Generated by Molecular Materials Informatics

 19 20  0  0  0  0  0  0  0  0999 V2000
    0.6353   -4.6306    0.0000 S   0  0  0  0  0  0  0  0  0  0  0  0
   -0.5603   -7.5262    0.0000 O   0  0  0  0  0  0  0  0  0  0  0  0
   -0.5782   -2.5289    0.0000 N   0  0  0  0  0  0  0  0  0  0  0  0
    2.0911   -2.3889    0.0000 N   0  0  0  0  0  0  0  0  0  0  0  0
   -3.0736   -3.4867    0.0000 N   0  0  0  0  0  0  0  0  0  0  0  0
   -0.8320   -4.9424    0.0000 C   0  0  0  0  0  0  0  0  0  0  0  0
   -1.5820   -3.6436    0.0000 C   0  0  0  0  0  0  0  0  0  0  0  0
   -1.4420   -6.3128    0.0000 C   0  0  0  0  0  0  0  0  0  0  0  0
    0.7920   -3.1388    0.0000 C   0  0  0  0  0  0  0  0  0  0  0  0
   -2.9338   -6.4695    0.0000 C   0  0  0  0  0  0  0  0  0  0  0  0
   -3.5439   -7.8398    0.0000 C   0  0  0  0  0  0  0  0  0  0  0  0
   -3.8154   -5.2561    0.0000 C   0  0  0  0  0  0  0  0  0  0  0  0
   -5.0355   -7.9967    0.0000 C   0  0  0  0  0  0  0  0  0  0  0  0
   -5.3072   -5.4128    0.0000 C   0  0  0  0  0  0  0  0  0  0  0  0
    3.3901   -3.1388    0.0000 C   0  0  0  0  0  0  0  0  0  0  0  0
   -5.9173   -6.7831    0.0000 C   0  0  0  0  0  0  0  0  0  0  0  0
    4.6892   -2.3889    0.0000 C   0  0  0  0  0  0  0  0  0  0  0  0
    5.9881   -3.1388    0.0000 C   0  0  0  0  0  0  0  0  0  0  0  0
    7.2871   -2.3889    0.0000 C   0  0  0  0  0  0  0  0  0  0  0  0
  1  6  1  0  0  0  0
  1  9  1  0  0  0  0
  2  8  2  0  0  0  0
  3  7  1  0  0  0  0
  3  9  2  0  0  0  0
  4  9  1  0  0  0  0
  4 15  1  0  0  0  0
  5  7  1  0  0  0  0
  6  7  2  0  0  0  0
  6  8  1  0  0  0  0
  8 10  1  0  0  0  0
 10 11  2  0  0  0  0
 10 12  1  0  0  0  0
 11 13  1  0  0  0  0
 12 14  2  0  0  0  0
 13 16  2  0  0  0  0
 14 16  1  0  0  0  0
 15 17  1  0  0  0  0
 17 18  1  0  0  0  0
 18 19  1  0  0  0  0
M  END
> <Value>
5.300000202445418

> <Relation>
<

> <SourceURI>
mol:CHEMBL2007479

$$$$

Generated by Molecular Materials Informatics

 21 23  0  0  0  0  0  0  0  0999 V2000
    5.5714    3.3581    0.0000 O   0  0  0  0  0  0  0  0  0  0  0  0
    2.2607    5.7177    0.0000 N   0  0  0  0  0  0  0  0  0  0  0  0
    9.3214    2.0590    0.0000 N   0  0  0  0  0  0  0  0  0  0  0  0
   13.8214    9.8533    0.0000 N   0  0  0  0  0  0  0  0  0  0  0  0
    3.3214    4.6572    0.0000 C   0  0  0  0  0  0  0  0  0  0  0  0
    7.0714    3.3581    0.0000 C   0  0  0  0  0  0  0  0  0  0  0  0
    9.3214    4.6572    0.0000 C   0  0  0  0  0  0  0  0  0  0  0  0
    2.2607    3.5964    0.0000 C   0  0  0  0  0  0  0  0  0  0  0  0
    4.8214    4.6572    0.0000 C   0  0  0  0  0  0  0  0  0  0  0  0
    1.2002    4.6572    0.0000 C   0  0  0  0  0  0  0  0  0  0  0  0
    7.8214    4.6572    0.0000 C   0  0  0  0  0  0  0  0  0  0  0  0
    7.8214    2.0590    0.0000 C   0  0  0  0  0  0  0  0  0  0  0  0
   10.0714    3.3581    0.0000 C   0  0  0  0  0  0  0  0  0  0  0  0
   10.0714    5.9562    0.0000 C   0  0  0  0  0  0  0  0  0  0  0  0
   12.3214    7.2551    0.0000 C   0  0  0  0  0  0  0  0  0  0  0  0
   11.5714    5.9562    0.0000 C   0  0  0  0  0  0  0  0  0  0  0  0
    2.2607    7.2177    0.0000 C   0  0  0  0  0  0  0  0  0  0  0  0
   13.8214    7.2551    0.0000 C   0  0  0  0  0  0  0  0  0  0  0  0
   11.5714    8.5542    0.0000 C   0  0  0  0  0  0  0  0  0  0  0  0
   14.5714    8.5542    0.0000 C   0  0  0  0  0  0  0  0  0  0  0  0
   12.3214    9.8533    0.0000 C   0  0  0  0  0  0  0  0  0  0  0  0
  1  6  1  0  0  0  0
  1  9  1  0  0  0  0
  2  5  1  0  0  0  0
  2 10  1  0  0  0  0
  2 17  1  0  0  0  0
  3 12  1  0  0  0  0
  3 13  2  0  0  0  0
  4 20  2  0  0  0  0
  4 21  1  0  0  0  0
  5  8  1  0  0  0  0
  5  9  1  0  0  0  0
  6 11  1  0  0  0  0
  6 12  2  0  0  0  0
  7 11  2  0  0  0  0
  7 13  1  0  0  0  0
  7 14  1  0  0  0  0
  8 10  1  0  0  0  0
 14 16  1  0  0  0  0
 15 16  1  0  0  0  0
 15 18  2  0  0  0  0
 15 19  1  0  0  0  0
 18 20  1  0  0  0  0
 19 21  2  0  0  0  0
M  END
> <Value>
6.599997654072044

> <Relation>
=

> <SourceURI>
mol:CHEMBL1996155

$$$$

Generated by Molecular Materials Informatics

 36 40  0  0  0  0  0  0  0  0999 V2000
   -0.0759    3.4585    0.0000 S   0  0  0  0  0  0  0  0  0  0  0  0
    1.0044   -4.0512    0.0000 F   0  0  0  0  0  0  0  0  0  0  0  0
   -4.4010   -3.8721    0.0000 O   0  0  0  0  0  0  0  0  0  0  0  0
    0.7464   11.3505    0.0000 O   0  0  0  0  0  0  0  0  0  0  0  0
    3.9488    1.4948    0.0000 N   0  0  0  0  0  0  0  0  0  0  0  0
    1.8997    7.5532    0.0000 N   0  0  0  0  0  0  0  0  0  0  0  0
    2.6497   -0.7552    0.0000 N   0  0  0  0  0  0  0  0  0  0  0  0
    3.3997    7.5532    0.0000 N   0  0  0  0  0  0  0  0  0  0  0  0
   -1.9301   -4.6750    0.0000 N   0  0  0  0  0  0  0  0  0  0  0  0
   -3.8608   -6.4134    0.0000 N   0  0  0  0  0  0  0  0  0  0  0  0
    1.3506    1.4948    0.0000 C   0  0  0  0  0  0  0  0  0  0  0  0
    1.3506    2.9948    0.0000 C   0  0  0  0  0  0  0  0  0  0  0  0
   -0.0759    1.0314    0.0000 C   0  0  0  0  0  0  0  0  0  0  0  0
    2.6497    3.7448    0.0000 C   0  0  0  0  0  0  0  0  0  0  0  0
    2.6497    0.7448    0.0000 C   0  0  0  0  0  0  0  0  0  0  0  0
   -0.5394   -0.3952    0.0000 C   0  0  0  0  0  0  0  0  0  0  0  0
    2.6497    5.2448    0.0000 C   0  0  0  0  0  0  0  0  0  0  0  0
   -0.9576    2.2448    0.0000 C   0  0  0  0  0  0  0  0  0  0  0  0
    3.9488    2.9948    0.0000 C   0  0  0  0  0  0  0  0  0  0  0  0
    0.4643   -1.5099    0.0000 C   0  0  0  0  0  0  0  0  0  0  0  0
   -2.0066   -0.7070    0.0000 C   0  0  0  0  0  0  0  0  0  0  0  0
    1.4361    6.1266    0.0000 C   0  0  0  0  0  0  0  0  0  0  0  0
    3.8632    6.1266    0.0000 C   0  0  0  0  0  0  0  0  0  0  0  0
    0.0006   -2.9365    0.0000 C   0  0  0  0  0  0  0  0  0  0  0  0
   -1.4665   -3.2485    0.0000 C   0  0  0  0  0  0  0  0  0  0  0  0
   -2.4703   -2.1337    0.0000 C   0  0  0  0  0  0  0  0  0  0  0  0
    1.0181    8.7666    0.0000 C   0  0  0  0  0  0  0  0  0  0  0  0
   -3.3972   -4.9868    0.0000 C   0  0  0  0  0  0  0  0  0  0  0  0
   -2.8570   -7.5281    0.0000 C   0  0  0  0  0  0  0  0  0  0  0  0
    1.6281   10.1370    0.0000 C   0  0  0  0  0  0  0  0  0  0  0  0
   -1.3899   -7.2163    0.0000 C   0  0  0  0  0  0  0  0  0  0  0  0
   -3.3206   -8.9546    0.0000 C   0  0  0  0  0  0  0  0  0  0  0  0
   -0.3861   -8.3310    0.0000 C   0  0  0  0  0  0  0  0  0  0  0  0
   -2.3168  -10.0694    0.0000 C   0  0  0  0  0  0  0  0  0  0  0  0
   -0.8497   -9.7575    0.0000 C   0  0  0  0  0  0  0  0  0  0  0  0
    1.0810   -8.0192    0.0000 C   0  0  0  0  0  0  0  0  0  0  0  0
  1 12  1  0  0  0  0
  1 18  1  0  0  0  0
  2 24  1  0  0  0  0
  3 28  2  0  0  0  0
  4 30  1  0  0  0  0
  5 15  1  0  0  0  0
  5 19  2  0  0  0  0
  6  8  1  0  0  0  0
  6 22  1  0  0  0  0
  6 27  1  0  0  0  0
  7 15  1  0  0  0  0
  8 23  2  0  0  0  0
  9 25  1  0  0  0  0
  9 28  1  0  0  0  0
 10 28  1  0  0  0  0
 10 29  1  0  0  0  0
 11 12  1  0  0  0  0
 11 13  1  0  0  0  0
 11 15  2  0  0  0  0
 12 14  2  0  0  0  0
 13 16  1  0  0  0  0
 13 18  2  0  0  0  0
 14 17  1  0  0  0  0
 14 19  1  0  0  0  0
 16 20  1  0  0  0  0
 16 21  2  0  0  0  0
 17 22  2  0  0  0  0
 17 23  1  0  0  0  0
 20 24  2  0  0  0  0
 21 26  1  0  0  0  0
 24 25  1  0  0  0  0
 25 26  2  0  0  0  0
 27 30  1  0  0  0  0
 29 31  2  0  0  0  0
 29 32  1  0  0  0  0
 31 33  1  0  0  0  0
 32 34  2  0  0  0  0
 33 35  2  0  0  0  0
 33 36  1  0  0  0  0
 34 35  1  0  0  0  0
M  END
> <Value>
5.499999678657065

> <Relation>
=

> <SourceURI>
mol:CHEMBL1986851

$$$$

Generated by Molecular Materials Informatics

 28 31  0  0  0  0  0  0  0  0999 V2000
   11.9422    2.4707    0.0000 Cl  0  0  0  0  0  0  0  0  0  0  0  0
    5.4472   -1.2791    0.0000 O   0  0  0  0  0  0  0  0  0  0  0  0
   -3.7733    0.6843    0.0000 N   0  0  0  0  0  0  0  0  0  0  0  0
   -4.6549   -0.5292    0.0000 N   0  0  0  0  0  0  0  0  0  0  0  0
    2.8492   -4.2790    0.0000 N   0  0  0  0  0  0  0  0  0  0  0  0
    8.0453    0.2208    0.0000 N   0  0  0  0  0  0  0  0  0  0  0  0
   -2.3468   -1.2791    0.0000 C   0  0  0  0  0  0  0  0  0  0  0  0
   -2.3468    0.2208    0.0000 C   0  0  0  0  0  0  0  0  0  0  0  0
    0.2513   -1.2791    0.0000 C   0  0  0  0  0  0  0  0  0  0  0  0
   -1.0477   -2.0291    0.0000 C   0  0  0  0  0  0  0  0  0  0  0  0
   -3.7733   -1.7428    0.0000 C   0  0  0  0  0  0  0  0  0  0  0  0
    1.5502   -2.0291    0.0000 C   0  0  0  0  0  0  0  0  0  0  0  0
   -1.0477    0.9708    0.0000 C   0  0  0  0  0  0  0  0  0  0  0  0
    0.2513    0.2208    0.0000 C   0  0  0  0  0  0  0  0  0  0  0  0
    2.8492   -1.2791    0.0000 C   0  0  0  0  0  0  0  0  0  0  0  0
    4.1483   -2.0291    0.0000 C   0  0  0  0  0  0  0  0  0  0  0  0
    1.5502   -3.5291    0.0000 C   0  0  0  0  0  0  0  0  0  0  0  0
    4.1483   -3.5291    0.0000 C   0  0  0  0  0  0  0  0  0  0  0  0
   -4.2367   -3.1693    0.0000 C   0  0  0  0  0  0  0  0  0  0  0  0
    6.7462   -2.0291    0.0000 C   0  0  0  0  0  0  0  0  0  0  0  0
    8.0453   -1.2791    0.0000 C   0  0  0  0  0  0  0  0  0  0  0  0
   10.6432   -1.2791    0.0000 C   0  0  0  0  0  0  0  0  0  0  0  0
    9.3443   -2.0291    0.0000 C   0  0  0  0  0  0  0  0  0  0  0  0
   10.6432    0.2208    0.0000 C   0  0  0  0  0  0  0  0  0  0  0  0
   11.9422    0.9708    0.0000 C   0  0  0  0  0  0  0  0  0  0  0  0
   11.9422   -2.0291    0.0000 C   0  0  0  0  0  0  0  0  0  0  0  0
   13.2413    0.2208    0.0000 C   0  0  0  0  0  0  0  0  0  0  0  0
   13.2413   -1.2791    0.0000 C   0  0  0  0  0  0  0  0  0  0  0  0
  1 25  1  0  0  0  0
  2 16  1  0  0  0  0
  2 20  1  0  0  0  0
  3  4  1  0  0  0  0
  3  8  1  0  0  0  0
  4 11  2  0  0  0  0
  5 17  1  0  0  0  0
  5 18  2  0  0  0  0
  6 21  1  0  0  0  0
  7  8  1  0  0  0  0
  7 10  2  0  0  0  0
  7 11  1  0  0  0  0
  8 13  2  0  0  0  0
  9 10  1  0  0  0  0
  9 12  1  0  0  0  0
  9 14  2  0  0  0  0
 11 19  1  0  0  0  0
 12 15  1  0  0  0  0
 12 17  2  0  0  0  0
 13 14  1  0  0  0  0
 15 16  2  0  0  0  0
 16 18  1  0  0  0  0
 20 21  1  0  0  0  0
 21 23  1  0  0  0  0
 22 23  1  0  0  0  0
 22 24  1  0  0  0  0
 22 26  2  0  0  0  0
 24 25  2  0  0  0  0
 25 27  1  0  0  0  0
 26 28  1  0  0  0  0
 27 28  2  0  0  0  0
M  END
> <Value>
7.100015437450609

> <Relation>
=

> <SourceURI>
mol:CHEMBL1974870

$$$$

Generated by Molecular Materials Informatics

 17 19  0  0  0  0  0  0  0  0999 V2000
   12.0208  -11.1482    0.0000 C   0  0  0  0  0  0  0  0  0  0  0  0
   12.0410  -12.6523    0.0000 C   0  0  0  0  0  0  0  0  0  0  0  0
   13.3514  -13.3836    0.0000 C   0  0  0  0  0  0  0  0  0  0  0  0
   13.3036  -10.3788    0.0000 C   0  0  0  0  0  0  0  0  0  0  0  0
   14.6151  -11.1033    0.0000 C   0  0  0  0  0  0  0  0  0  0  0  0
   14.6381  -12.6139    0.0000 C   0  0  0  0  0  0  0  0  0  0  0  0
   16.0817  -13.0591    0.0000 N   0  0  0  0  0  0  0  0  0  0  0  0
   16.9515  -11.8234    0.0000 N   0  0  0  0  0  0  0  0  0  0  0  0
   16.0448  -10.6148    0.0000 C   0  0  0  0  0  0  0  0  0  0  0  0
   10.7108  -10.4179    0.0000 C   0  0  0  0  0  0  0  0  0  0  0  0
   10.5388   -8.9210    0.0000 C   0  0  0  0  0  0  0  0  0  0  0  0
    9.0678   -8.6308    0.0000 C   0  0  0  0  0  0  0  0  0  0  0  0
    8.3368   -9.9414    0.0000 N   0  0  0  0  0  0  0  0  0  0  0  0
    9.3571  -11.0406    0.0000 O   0  0  0  0  0  0  0  0  0  0  0  0
    8.4375   -7.2699    0.0000 C   0  0  0  0  0  0  0  0  0  0  0  0
    9.3013   -6.0436    0.0000 C   0  0  0  0  0  0  0  0  0  0  0  0
    8.6710   -4.6825    0.0000 C   0  0  0  0  0  0  0  0  0  0  0  0
 11 12  1  0  0  0  0
 12 13  2  0  0  0  0
 13 14  1  0  0  0  0
 14 10  1  0  0  0  0
  1  2  2  0  0  0  0
  5  4  2  0  0  0  0
  6  7  1  0  0  0  0
  7  8  1  0  0  0  0
  8  9  2  0  0  0  0
  9  5  1  0  0  0  0
  4  1  1  0  0  0  0
  1 10  1  0  0  0  0
 10 11  2  0  0  0  0
  5  6  1  0  0  0  0
 12 15  1  0  0  0  0
  2  3  1  0  0  0  0
 15 16  1  0  0  0  0
  3  6  2  0  0  0  0
 16 17  1  0  0  0  0
M  END
> <Value>
7.0

> <Relation>
=

> <SourceURI>
mol:CHEMBL1682359

$$$$

Generated by Molecular Materials Informatics

 38 42  0  0  0  0  0  0  0  0999 V2000
    1.6790    3.0972    0.0000 S   0  0  0  0  0  0  0  0  0  0  0  0
  -10.4457   -7.2194    0.0000 F   0  0  0  0  0  0  0  0  0  0  0  0
   -8.5150   -5.4808    0.0000 F   0  0  0  0  0  0  0  0  0  0  0  0
   -2.6461   -4.2334    0.0000 O   0  0  0  0  0  0  0  0  0  0  0  0
   -7.9748   -8.0221    0.0000 O   0  0  0  0  0  0  0  0  0  0  0  0
    2.5014   10.9892    0.0000 O   0  0  0  0  0  0  0  0  0  0  0  0
    5.7037    1.1336    0.0000 N   0  0  0  0  0  0  0  0  0  0  0  0
    3.6546    7.1919    0.0000 N   0  0  0  0  0  0  0  0  0  0  0  0
    4.4046   -1.1164    0.0000 N   0  0  0  0  0  0  0  0  0  0  0  0
    5.1546    7.1919    0.0000 N   0  0  0  0  0  0  0  0  0  0  0  0
   -0.1752   -5.0363    0.0000 N   0  0  0  0  0  0  0  0  0  0  0  0
   -2.1059   -6.7746    0.0000 N   0  0  0  0  0  0  0  0  0  0  0  0
    3.1055    1.1336    0.0000 C   0  0  0  0  0  0  0  0  0  0  0  0
    3.1055    2.6336    0.0000 C   0  0  0  0  0  0  0  0  0  0  0  0
    1.6790    0.6701    0.0000 C   0  0  0  0  0  0  0  0  0  0  0  0
    4.4046    3.3836    0.0000 C   0  0  0  0  0  0  0  0  0  0  0  0
    4.4046    0.3836    0.0000 C   0  0  0  0  0  0  0  0  0  0  0  0
    4.4046    4.8836    0.0000 C   0  0  0  0  0  0  0  0  0  0  0  0
    1.2155   -0.7564    0.0000 C   0  0  0  0  0  0  0  0  0  0  0  0
    0.7974    1.8836    0.0000 C   0  0  0  0  0  0  0  0  0  0  0  0
    5.7037    2.6336    0.0000 C   0  0  0  0  0  0  0  0  0  0  0  0
    3.1910    5.7654    0.0000 C   0  0  0  0  0  0  0  0  0  0  0  0
    5.6181    5.7654    0.0000 C   0  0  0  0  0  0  0  0  0  0  0  0
    2.2192   -1.8712    0.0000 C   0  0  0  0  0  0  0  0  0  0  0  0
   -0.2517   -1.0683    0.0000 C   0  0  0  0  0  0  0  0  0  0  0  0
    0.2885   -3.6097    0.0000 C   0  0  0  0  0  0  0  0  0  0  0  0
    1.7555   -3.2977    0.0000 C   0  0  0  0  0  0  0  0  0  0  0  0
   -0.7154   -2.4950    0.0000 C   0  0  0  0  0  0  0  0  0  0  0  0
    2.7730    8.4054    0.0000 C   0  0  0  0  0  0  0  0  0  0  0  0
   -1.6423   -5.3481    0.0000 C   0  0  0  0  0  0  0  0  0  0  0  0
   -3.5730   -7.0866    0.0000 C   0  0  0  0  0  0  0  0  0  0  0  0
    3.3830    9.7757    0.0000 C   0  0  0  0  0  0  0  0  0  0  0  0
   -6.5075   -7.7103    0.0000 C   0  0  0  0  0  0  0  0  0  0  0  0
   -4.0366   -8.5132    0.0000 C   0  0  0  0  0  0  0  0  0  0  0  0
   -4.5768   -5.9719    0.0000 C   0  0  0  0  0  0  0  0  0  0  0  0
   -5.5039   -8.8250    0.0000 C   0  0  0  0  0  0  0  0  0  0  0  0
   -6.0441   -6.2837    0.0000 C   0  0  0  0  0  0  0  0  0  0  0  0
   -8.9785   -6.9074    0.0000 C   0  0  0  0  0  0  0  0  0  0  0  0
  1 14  1  0  0  0  0
  1 20  1  0  0  0  0
  2 38  1  0  0  0  0
  3 38  1  0  0  0  0
  4 30  2  0  0  0  0
  5 33  1  0  0  0  0
  5 38  1  0  0  0  0
  6 32  1  0  0  0  0
  7 17  2  0  0  0  0
  7 21  1  0  0  0  0
  8 10  1  0  0  0  0
  8 22  1  0  0  0  0
  8 29  1  0  0  0  0
  9 17  1  0  0  0  0
 10 23  2  0  0  0  0
 11 26  1  0  0  0  0
 11 30  1  0  0  0  0
 12 30  1  0  0  0  0
 12 31  1  0  0  0  0
 13 14  2  0  0  0  0
 13 15  1  0  0  0  0
 13 17  1  0  0  0  0
 14 16  1  0  0  0  0
 15 19  1  0  0  0  0
 15 20  2  0  0  0  0
 16 18  1  0  0  0  0
 16 21  2  0  0  0  0
 18 22  2  0  0  0  0
 18 23  1  0  0  0  0
 19 24  2  0  0  0  0
 19 25  1  0  0  0  0
 24 27  1  0  0  0  0
 25 28  2  0  0  0  0
 26 27  2  0  0  0  0
 26 28  1  0  0  0  0
 29 32  1  0  0  0  0
 31 34  2  0  0  0  0
 31 35  1  0  0  0  0
 33 36  2  0  0  0  0
 33 37  1  0  0  0  0
 34 36  1  0  0  0  0
 35 37  2  0  0  0  0
M  END
> <Value>
5.300000202445418

> <Relation>
<

> <SourceURI>
mol:CHEMBL1972220

$$$$

Generated by Molecular Materials Informatics

 30 34  0  0  0  0  0  0  0  0999 V2000
   -2.2043   -2.8965    0.0000 O   0  0  0  0  0  0  0  0  0  0  0  0
  -10.3705   -7.6072    0.0000 N   0  0  0  0  0  0  0  0  0  0  0  0
  -10.2136   -9.0990    0.0000 N   0  0  0  0  0  0  0  0  0  0  0  0
    1.6571    3.0074    0.0000 N   0  0  0  0  0  0  0  0  0  0  0  0
   -2.1277   -6.8643    0.0000 N   0  0  0  0  0  0  0  0  0  0  0  0
   -1.2774   -0.0433    0.0000 N   0  0  0  0  0  0  0  0  0  0  0  0
   -7.9965   -8.1117    0.0000 C   0  0  0  0  0  0  0  0  0  0  0  0
   -9.0002   -6.9970    0.0000 C   0  0  0  0  0  0  0  0  0  0  0  0
   -6.0658   -6.3734    0.0000 C   0  0  0  0  0  0  0  0  0  0  0  0
   -6.5293   -7.7999    0.0000 C   0  0  0  0  0  0  0  0  0  0  0  0
   -8.7465   -9.4108    0.0000 C   0  0  0  0  0  0  0  0  0  0  0  0
   -4.5986   -6.0614    0.0000 C   0  0  0  0  0  0  0  0  0  0  0  0
    3.0837    1.0440    0.0000 C   0  0  0  0  0  0  0  0  0  0  0  0
    1.6571    0.5803    0.0000 C   0  0  0  0  0  0  0  0  0  0  0  0
   -8.5367   -5.5705    0.0000 C   0  0  0  0  0  0  0  0  0  0  0  0
    3.0837    2.5440    0.0000 C   0  0  0  0  0  0  0  0  0  0  0  0
   -7.0695   -5.2587    0.0000 C   0  0  0  0  0  0  0  0  0  0  0  0
   -4.1350   -4.6349    0.0000 C   0  0  0  0  0  0  0  0  0  0  0  0
   -2.6679   -4.3230    0.0000 C   0  0  0  0  0  0  0  0  0  0  0  0
    0.7755    1.7940    0.0000 C   0  0  0  0  0  0  0  0  0  0  0  0
   -3.5948   -7.1761    0.0000 C   0  0  0  0  0  0  0  0  0  0  0  0
    1.1937   -0.8462    0.0000 C   0  0  0  0  0  0  0  0  0  0  0  0
    4.3827    0.2940    0.0000 C   0  0  0  0  0  0  0  0  0  0  0  0
    4.3827    3.2939    0.0000 C   0  0  0  0  0  0  0  0  0  0  0  0
   -0.2736   -1.1580    0.0000 C   0  0  0  0  0  0  0  0  0  0  0  0
   -1.6641   -5.4378    0.0000 C   0  0  0  0  0  0  0  0  0  0  0  0
   -8.1364  -10.7811    0.0000 C   0  0  0  0  0  0  0  0  0  0  0  0
    5.6818    1.0440    0.0000 C   0  0  0  0  0  0  0  0  0  0  0  0
   -0.7372   -2.5847    0.0000 C   0  0  0  0  0  0  0  0  0  0  0  0
    5.6818    2.5440    0.0000 C   0  0  0  0  0  0  0  0  0  0  0  0
  1 19  1  0  0  0  0
  1 29  1  0  0  0  0
  2  3  1  0  0  0  0
  2  8  1  0  0  0  0
  3 11  2  0  0  0  0
  4 16  1  0  0  0  0
  4 20  1  0  0  0  0
  5 21  1  0  0  0  0
  5 26  2  0  0  0  0
  6 25  1  0  0  0  0
  7  8  1  0  0  0  0
  7 10  2  0  0  0  0
  7 11  1  0  0  0  0
  8 15  2  0  0  0  0
  9 10  1  0  0  0  0
  9 12  1  0  0  0  0
  9 17  2  0  0  0  0
 11 27  1  0  0  0  0
 12 18  1  0  0  0  0
 12 21  2  0  0  0  0
 13 14  1  0  0  0  0
 13 16  1  0  0  0  0
 13 23  2  0  0  0  0
 14 20  2  0  0  0  0
 14 22  1  0  0  0  0
 15 17  1  0  0  0  0
 16 24  2  0  0  0  0
 18 19  2  0  0  0  0
 19 26  1  0  0  0  0
 22 25  1  0  0  0  0
 23 28  1  0  0  0  0
 24 30  1  0  0  0  0
 25 29  1  0  0  0  0
 28 30  2  0  0  0  0
M  END
> <Value>
7.0

> <Relation>
=

> <SourceURI>
mol:CHEMBL1970903

$$$$

Generated by Molecular Materials Informatics

 25 27  0  0  0  0  0  0  0  0999 V2000
    1.2991   -3.0563    0.0000 O   0  0  0  0  0  0  0  0  0  0  0  0
   -1.2991   -0.0562    0.0000 N   0  0  0  0  0  0  0  0  0  0  0  0
   -9.0933   -4.5563    0.0000 N   0  0  0  0  0  0  0  0  0  0  0  0
    3.8971   -4.5563    0.0000 N   0  0  0  0  0  0  0  0  0  0  0  0
    0.0000   -2.3062    0.0000 C   0  0  0  0  0  0  0  0  0  0  0  0
   -2.5980   -2.3062    0.0000 C   0  0  0  0  0  0  0  0  0  0  0  0
   -1.2991   -3.0563    0.0000 C   0  0  0  0  0  0  0  0  0  0  0  0
    0.0000   -0.8062    0.0000 C   0  0  0  0  0  0  0  0  0  0  0  0
   -2.5980   -0.8062    0.0000 C   0  0  0  0  0  0  0  0  0  0  0  0
   -3.8971   -3.0563    0.0000 C   0  0  0  0  0  0  0  0  0  0  0  0
   -6.4953   -3.0563    0.0000 C   0  0  0  0  0  0  0  0  0  0  0  0
    3.8971   -3.0563    0.0000 C   0  0  0  0  0  0  0  0  0  0  0  0
   -5.1962   -2.3062    0.0000 C   0  0  0  0  0  0  0  0  0  0  0  0
    2.5980   -2.3062    0.0000 C   0  0  0  0  0  0  0  0  0  0  0  0
    6.4953   -3.0563    0.0000 C   0  0  0  0  0  0  0  0  0  0  0  0
    5.1962   -2.3062    0.0000 C   0  0  0  0  0  0  0  0  0  0  0  0
   -7.7942   -2.3062    0.0000 C   0  0  0  0  0  0  0  0  0  0  0  0
   -6.4953   -4.5563    0.0000 C   0  0  0  0  0  0  0  0  0  0  0  0
    7.7942   -2.3062    0.0000 C   0  0  0  0  0  0  0  0  0  0  0  0
    6.4953   -4.5563    0.0000 C   0  0  0  0  0  0  0  0  0  0  0  0
   -9.0933   -3.0563    0.0000 C   0  0  0  0  0  0  0  0  0  0  0  0
   -7.7942   -5.3062    0.0000 C   0  0  0  0  0  0  0  0  0  0  0  0
    9.0933   -3.0563    0.0000 C   0  0  0  0  0  0  0  0  0  0  0  0
    7.7942   -5.3062    0.0000 C   0  0  0  0  0  0  0  0  0  0  0  0
    9.0933   -4.5563    0.0000 C   0  0  0  0  0  0  0  0  0  0  0  0
  1  5  1  0  0  0  0
  1 14  1  0  0  0  0
  2  8  1  0  0  0  0
  2  9  2  0  0  0  0
  3 21  2  0  0  0  0
  3 22  1  0  0  0  0
  4 12  1  0  0  0  0
  5  7  1  0  0  0  0
  5  8  2  0  0  0  0
  6  7  2  0  0  0  0
  6  9  1  0  0  0  0
 10  6  1  0  0  0  0
 10 13  2  0  0  0  0
 11 13  1  0  0  0  0
 11 17  2  0  0  0  0
 11 18  1  0  0  0  0
 12 14  1  0  0  0  0
 12 16  1  0  0  0  0
 15 16  1  0  0  0  0
 15 19  2  0  0  0  0
 15 20  1  0  0  0  0
 17 21  1  0  0  0  0
 18 22  2  0  0  0  0
 19 23  1  0  0  0  0
 20 24  2  0  0  0  0
 23 25  2  0  0  0  0
 24 25  1  0  0  0  0
M  END
> <Value>
5.899998417198648

> <Relation>
<

> <SourceURI>
mol:CHEMBL1991846

$$$$

Generated by Molecular Materials Informatics

 18 20  0  0  0  0  0  0  0  0999 V2000
   -0.3575    7.1438    0.0000 F   0  0  0  0  0  0  0  0  0  0  0  0
   -1.7841    0.1072    0.0000 N   0  0  0  0  0  0  0  0  0  0  0  0
   -1.7841   -2.3197    0.0000 N   0  0  0  0  0  0  0  0  0  0  0  0
    0.9416   -2.6063    0.0000 N   0  0  0  0  0  0  0  0  0  0  0  0
    2.2405   -0.3563    0.0000 N   0  0  0  0  0  0  0  0  0  0  0  0
    0.9416    1.8937    0.0000 N   0  0  0  0  0  0  0  0  0  0  0  0
   -0.3575   -0.3563    0.0000 C   0  0  0  0  0  0  0  0  0  0  0  0
   -0.3575   -1.8563    0.0000 C   0  0  0  0  0  0  0  0  0  0  0  0
    0.9416    0.3937    0.0000 C   0  0  0  0  0  0  0  0  0  0  0  0
   -2.6657   -1.1063    0.0000 C   0  0  0  0  0  0  0  0  0  0  0  0
    2.2405   -1.8563    0.0000 C   0  0  0  0  0  0  0  0  0  0  0  0
    2.2405    2.6437    0.0000 C   0  0  0  0  0  0  0  0  0  0  0  0
    2.2405    4.1438    0.0000 C   0  0  0  0  0  0  0  0  0  0  0  0
    0.9416    4.8938    0.0000 C   0  0  0  0  0  0  0  0  0  0  0  0
    3.5396    4.8938    0.0000 C   0  0  0  0  0  0  0  0  0  0  0  0
    0.9416    6.3938    0.0000 C   0  0  0  0  0  0  0  0  0  0  0  0
    3.5396    6.3938    0.0000 C   0  0  0  0  0  0  0  0  0  0  0  0
    2.2405    7.1438    0.0000 C   0  0  0  0  0  0  0  0  0  0  0  0
  1 16  1  0  0  0  0
  2  7  1  0  0  0  0
  2 10  2  0  0  0  0
  3  8  1  0  0  0  0
  3 10  1  0  0  0  0
  4  8  1  0  0  0  0
  4 11  2  0  0  0  0
  5  9  2  0  0  0  0
  5 11  1  0  0  0  0
  6  9  1  0  0  0  0
  6 12  1  0  0  0  0
  7  8  2  0  0  0  0
  7  9  1  0  0  0  0
 12 13  1  0  0  0  0
 13 14  2  0  0  0  0
 13 15  1  0  0  0  0
 14 16  1  0  0  0  0
 15 17  2  0  0  0  0
 16 18  2  0  0  0  0
 17 18  1  0  0  0  0
M  END
> <Value>
4.499999953328896

> <Relation>
=

> <SourceURI>
mol:CHEMBL2003785

$$$$

Generated by Molecular Materials Informatics

 28 30  0  0  0  0  0  0  0  0999 V2000
    1.6884   -3.9131    0.0000 O   0  0  0  0  0  0  0  0  0  0  0  0
    4.2489   -6.4736    0.0000 O   0  0  0  0  0  0  0  0  0  0  0  0
    4.2489   -1.3523    0.0000 N   0  0  0  0  0  0  0  0  0  0  0  0
    6.8097   -3.9131    0.0000 N   0  0  0  0  0  0  0  0  0  0  0  0
    2.9500    0.8977    0.0000 N   0  0  0  0  0  0  0  0  0  0  0  0
    0.3518    0.8977    0.0000 N   0  0  0  0  0  0  0  0  0  0  0  0
    1.6509    3.1477    0.0000 N   0  0  0  0  0  0  0  0  0  0  0  0
    4.2489   -2.8523    0.0000 C   0  0  0  0  0  0  0  0  0  0  0  0
    5.3097   -3.9131    0.0000 C   0  0  0  0  0  0  0  0  0  0  0  0
    3.1884   -3.9131    0.0000 C   0  0  0  0  0  0  0  0  0  0  0  0
    4.2489   -4.9736    0.0000 C   0  0  0  0  0  0  0  0  0  0  0  0
    2.9500   -0.6023    0.0000 C   0  0  0  0  0  0  0  0  0  0  0  0
    7.5597   -5.2122    0.0000 C   0  0  0  0  0  0  0  0  0  0  0  0
    9.0597   -5.2122    0.0000 C   0  0  0  0  0  0  0  0  0  0  0  0
    1.6509    1.6477    0.0000 C   0  0  0  0  0  0  0  0  0  0  0  0
    1.6509   -1.3523    0.0000 C   0  0  0  0  0  0  0  0  0  0  0  0
    0.3518   -0.6023    0.0000 C   0  0  0  0  0  0  0  0  0  0  0  0
    6.8097   -6.5111    0.0000 C   0  0  0  0  0  0  0  0  0  0  0  0
    2.9500    3.8977    0.0000 C   0  0  0  0  0  0  0  0  0  0  0  0
   10.5597   -5.2122    0.0000 C   0  0  0  0  0  0  0  0  0  0  0  0
    9.0597   -3.7122    0.0000 C   0  0  0  0  0  0  0  0  0  0  0  0
    9.0597   -6.7122    0.0000 C   0  0  0  0  0  0  0  0  0  0  0  0
    2.9500    5.3977    0.0000 C   0  0  0  0  0  0  0  0  0  0  0  0
    4.2489    3.1477    0.0000 C   0  0  0  0  0  0  0  0  0  0  0  0
    4.2489    6.1477    0.0000 C   0  0  0  0  0  0  0  0  0  0  0  0
    5.5480    3.8977    0.0000 C   0  0  0  0  0  0  0  0  0  0  0  0
    5.5480    5.3977    0.0000 C   0  0  0  0  0  0  0  0  0  0  0  0
    4.2489    7.6477    0.0000 C   0  0  0  0  0  0  0  0  0  0  0  0
  1 10  2  0  0  0  0
  2 11  2  0  0  0  0
  3  8  1  0  0  0  0
  3 12  1  0  0  0  0
  4  9  1  0  0  0  0
  4 13  1  0  0  0  0
  5 12  1  0  0  0  0
  5 15  2  0  0  0  0
  6 15  1  0  0  0  0
  6 17  2  0  0  0  0
  7 15  1  0  0  0  0
  7 19  1  0  0  0  0
  8  9  2  0  0  0  0
  8 10  1  0  0  0  0
  9 11  1  0  0  0  0
 10 11  1  0  0  0  0
 12 16  2  0  0  0  0
 13 14  1  0  0  0  0
 13 18  1  0  0  0  0
 14 20  1  0  0  0  0
 14 21  1  0  0  0  0
 14 22  1  0  0  0  0
 16 17  1  0  0  0  0
 19 23  1  0  0  0  0
 19 24  2  0  0  0  0
 23 25  2  0  0  0  0
 24 26  1  0  0  0  0
 25 27  1  0  0  0  0
 25 28  1  0  0  0  0
 26 27  2  0  0  0  0
M  END
> <Value>
7.79997073344623

> <Relation>
=

> <SourceURI>
mol:CHEMBL1969523

$$$$

Generated by Molecular Materials Informatics

 50 57  0  0  0  0  0  0  0  0999 V2000
   12.3723    6.9569    0.0000 F   0  0  0  0  0  0  0  0  0  0  0  0
   17.1504    4.9147    0.0000 F   0  0  0  0  0  0  0  0  0  0  0  0
   15.3509    7.3151    0.0000 F   0  0  0  0  0  0  0  0  0  0  0  0
    5.7181   -4.9865    0.0000 O   0  0  0  0  0  0  0  0  0  0  0  0
   -3.8672   -1.7481    0.0000 O   0  0  0  0  0  0  0  0  0  0  0  0
  -10.4647    4.3734    0.0000 O   0  0  0  0  0  0  0  0  0  0  0  0
   11.5036    1.6188    0.0000 N   0  0  0  0  0  0  0  0  0  0  0  0
    4.3174   -0.3490    0.0000 N   0  0  0  0  0  0  0  0  0  0  0  0
    3.5674   -3.6350    0.0000 N   0  0  0  0  0  0  0  0  0  0  0  0
    9.3912    5.0758    0.0000 N   0  0  0  0  0  0  0  0  0  0  0  0
   -8.2656    2.3329    0.0000 N   0  0  0  0  0  0  0  0  0  0  0  0
    9.3012    0.5985    0.0000 C   0  0  0  0  0  0  0  0  0  0  0  0
    9.1221    2.0878    0.0000 C   0  0  0  0  0  0  0  0  0  0  0  0
   10.4832    2.7183    0.0000 C   0  0  0  0  0  0  0  0  0  0  0  0
    8.2018   -0.4217    0.0000 C   0  0  0  0  0  0  0  0  0  0  0  0
   10.7730    0.3087    0.0000 C   0  0  0  0  0  0  0  0  0  0  0  0
    5.6688   -0.9999    0.0000 C   0  0  0  0  0  0  0  0  0  0  0  0
    6.0025   -2.4623    0.0000 C   0  0  0  0  0  0  0  0  0  0  0  0
    6.7683    0.0205    0.0000 C   0  0  0  0  0  0  0  0  0  0  0  0
    8.5356   -1.8841    0.0000 C   0  0  0  0  0  0  0  0  0  0  0  0
    7.8956    2.9512    0.0000 C   0  0  0  0  0  0  0  0  0  0  0  0
   10.6178    4.2123    0.0000 C   0  0  0  0  0  0  0  0  0  0  0  0
   12.9929    1.7979    0.0000 C   0  0  0  0  0  0  0  0  0  0  0  0
    5.0674   -3.6350    0.0000 C   0  0  0  0  0  0  0  0  0  0  0  0
    7.4359   -2.9045    0.0000 C   0  0  0  0  0  0  0  0  0  0  0  0
    2.9659   -0.9999    0.0000 C   0  0  0  0  0  0  0  0  0  0  0  0
    2.6321   -2.4623    0.0000 C   0  0  0  0  0  0  0  0  0  0  0  0
   13.5823    3.1772    0.0000 C   0  0  0  0  0  0  0  0  0  0  0  0
    8.0301    4.4452    0.0000 C   0  0  0  0  0  0  0  0  0  0  0  0
    1.1986   -2.9045    0.0000 C   0  0  0  0  0  0  0  0  0  0  0  0
    1.8663    0.0205    0.0000 C   0  0  0  0  0  0  0  0  0  0  0  0
    0.0992   -1.8841    0.0000 C   0  0  0  0  0  0  0  0  0  0  0  0
   12.6827    4.3774    0.0000 C   0  0  0  0  0  0  0  0  0  0  0  0
   15.0716    3.3563    0.0000 C   0  0  0  0  0  0  0  0  0  0  0  0
   13.2721    5.7567    0.0000 C   0  0  0  0  0  0  0  0  0  0  0  0
   15.6613    4.7356    0.0000 C   0  0  0  0  0  0  0  0  0  0  0  0
    0.4330   -0.4217    0.0000 C   0  0  0  0  0  0  0  0  0  0  0  0
   14.7614    5.9358    0.0000 C   0  0  0  0  0  0  0  0  0  0  0  0
   -1.3343   -2.3263    0.0000 C   0  0  0  0  0  0  0  0  0  0  0  0
   -2.4338   -1.3061    0.0000 C   0  0  0  0  0  0  0  0  0  0  0  0
   -4.9669   -0.7279    0.0000 C   0  0  0  0  0  0  0  0  0  0  0  0
   -7.1660    1.3127    0.0000 C   0  0  0  0  0  0  0  0  0  0  0  0
   -6.4002   -1.1701    0.0000 C   0  0  0  0  0  0  0  0  0  0  0  0
   -4.6331    0.7345    0.0000 C   0  0  0  0  0  0  0  0  0  0  0  0
   -7.4998   -0.1497    0.0000 C   0  0  0  0  0  0  0  0  0  0  0  0
   -5.7325    1.7548    0.0000 C   0  0  0  0  0  0  0  0  0  0  0  0
   -7.9318    3.7954    0.0000 C   0  0  0  0  0  0  0  0  0  0  0  0
   -9.6989    1.8909    0.0000 C   0  0  0  0  0  0  0  0  0  0  0  0
   -9.0315    4.8156    0.0000 C   0  0  0  0  0  0  0  0  0  0  0  0
  -10.7986    2.9110    0.0000 C   0  0  0  0  0  0  0  0  0  0  0  0
  1 35  1  0  0  0  0
  2 36  1  0  0  0  0
  3 38  1  0  0  0  0
  4 24  2  0  0  0  0
  5 40  1  0  0  0  0
  5 41  1  0  0  0  0
  6 49  1  0  0  0  0
  6 50  1  0  0  0  0
  7 14  1  0  0  0  0
  7 16  1  0  0  0  0
  7 23  1  0  0  0  0
  8 17  1  0  0  0  0
  8 26  1  0  0  0  0
  9 24  1  0  0  0  0
  9 27  1  0  0  0  0
 10 22  1  0  0  0  0
 10 29  2  0  0  0  0
 11 42  1  0  0  0  0
 11 47  1  0  0  0  0
 11 48  1  0  0  0  0
 12 13  1  0  0  0  0
 12 15  1  0  0  0  0
 12 16  2  0  0  0  0
 13 14  1  0  0  0  0
 13 21  2  0  0  0  0
 14 22  2  0  0  0  0
 15 19  1  0  0  0  0
 15 20  2  0  0  0  0
 17 18  1  0  0  0  0
 17 19  2  0  0  0  0
 18 24  1  0  0  0  0
 18 25  2  0  0  0  0
 20 25  1  0  0  0  0
 21 29  1  0  0  0  0
 23 28  1  0  0  0  0
 26 27  1  0  0  0  0
 26 31  2  0  0  0  0
 27 30  2  0  0  0  0
 28 33  2  0  0  0  0
 28 34  1  0  0  0  0
 30 32  1  0  0  0  0
 31 37  1  0  0  0  0
 32 37  2  0  0  0  0
 32 39  1  0  0  0  0
 33 35  1  0  0  0  0
 34 36  2  0  0  0  0
 35 38  2  0  0  0  0
 36 38  1  0  0  0  0
 39 40  1  0  0  0  0
 41 43  2  0  0  0  0
 41 44  1  0  0  0  0
 42 45  2  0  0  0  0
 42 46  1  0  0  0  0
 43 45  1  0  0  0  0
 44 46  2  0  0  0  0
 47 49  1  0  0  0  0
 48 50  1  0  0  0  0
M  END
> <Value>
5.499999678657065

> <Relation>
<

> <SourceURI>
mol:CHEMBL2001923

$$$$

Generated by Molecular Materials Informatics

 31 35  0  0  0  0  0  0  0  0999 V2000
    8.9447   -2.5527    0.0000 F   0  0  0  0  0  0  0  0  0  0  0  0
   -0.7902   -3.7663    0.0000 O   0  0  0  0  0  0  0  0  0  0  0  0
    6.7749    8.9588    0.0000 O   0  0  0  0  0  0  0  0  0  0  0  0
    0.6365   -1.8027    0.0000 N   0  0  0  0  0  0  0  0  0  0  0  0
    2.0630   -3.7663    0.0000 N   0  0  0  0  0  0  0  0  0  0  0  0
    3.9938    0.3991    0.0000 N   0  0  0  0  0  0  0  0  0  0  0  0
    3.4536    2.9406    0.0000 N   0  0  0  0  0  0  0  0  0  0  0  0
    5.9245    2.1377    0.0000 N   0  0  0  0  0  0  0  0  0  0  0  0
    7.3150    6.4175    0.0000 N   0  0  0  0  0  0  0  0  0  0  0  0
    2.0630   -1.3392    0.0000 C   0  0  0  0  0  0  0  0  0  0  0  0
    2.9447   -2.5527    0.0000 C   0  0  0  0  0  0  0  0  0  0  0  0
    0.6365   -3.3027    0.0000 C   0  0  0  0  0  0  0  0  0  0  0  0
    2.5265    0.0873    0.0000 C   0  0  0  0  0  0  0  0  0  0  0  0
    4.4447   -2.5527    0.0000 C   0  0  0  0  0  0  0  0  0  0  0  0
   -0.7902   -1.3392    0.0000 C   0  0  0  0  0  0  0  0  0  0  0  0
   -1.6719   -2.5527    0.0000 C   0  0  0  0  0  0  0  0  0  0  0  0
    1.5229    1.2020    0.0000 C   0  0  0  0  0  0  0  0  0  0  0  0
    4.4572    1.8259    0.0000 C   0  0  0  0  0  0  0  0  0  0  0  0
    5.1947   -1.2538    0.0000 C   0  0  0  0  0  0  0  0  0  0  0  0
    5.1947   -3.8518    0.0000 C   0  0  0  0  0  0  0  0  0  0  0  0
    1.9863    2.6286    0.0000 C   0  0  0  0  0  0  0  0  0  0  0  0
    6.6947   -1.2538    0.0000 C   0  0  0  0  0  0  0  0  0  0  0  0
    6.6947   -3.8518    0.0000 C   0  0  0  0  0  0  0  0  0  0  0  0
    7.4447   -2.5527    0.0000 C   0  0  0  0  0  0  0  0  0  0  0  0
    6.3880    3.5642    0.0000 C   0  0  0  0  0  0  0  0  0  0  0  0
    7.8552    3.8760    0.0000 C   0  0  0  0  0  0  0  0  0  0  0  0
    5.3843    4.6790    0.0000 C   0  0  0  0  0  0  0  0  0  0  0  0
    8.3189    5.3028    0.0000 C   0  0  0  0  0  0  0  0  0  0  0  0
    5.8479    6.1055    0.0000 C   0  0  0  0  0  0  0  0  0  0  0  0
    7.7787    7.8440    0.0000 C   0  0  0  0  0  0  0  0  0  0  0  0
    9.2458    8.1559    0.0000 C   0  0  0  0  0  0  0  0  0  0  0  0
  1 24  1  0  0  0  0
  2 12  1  0  0  0  0
  2 16  1  0  0  0  0
  3 30  2  0  0  0  0
  4 10  1  0  0  0  0
  4 12  1  0  0  0  0
  4 15  1  0  0  0  0
  5 11  1  0  0  0  0
  5 12  2  0  0  0  0
  6 13  2  0  0  0  0
  6 18  1  0  0  0  0
  7 18  2  0  0  0  0
  7 21  1  0  0  0  0
  8 18  1  0  0  0  0
  8 25  1  0  0  0  0
  9 28  1  0  0  0  0
  9 29  1  0  0  0  0
  9 30  1  0  0  0  0
 10 11  2  0  0  0  0
 10 13  1  0  0  0  0
 11 14  1  0  0  0  0
 13 17  1  0  0  0  0
 14 19  2  0  0  0  0
 14 20  1  0  0  0  0
 15 16  2  0  0  0  0
 17 21  2  0  0  0  0
 19 22  1  0  0  0  0
 20 23  2  0  0  0  0
 22 24  2  0  0  0  0
 23 24  1  0  0  0  0
 25 26  1  0  0  0  0
 25 27  1  0  0  0  0
 26 28  1  0  0  0  0
 27 29  1  0  0  0  0
 30 31  1  0  0  0  0
M  END
> <Value>
5.899998417198648

> <Relation>
<

> <SourceURI>
mol:CHEMBL1986781

$$$$

Generated by Molecular Materials Informatics

 26 29  0  0  0  0  0  0  0  0999 V2000
    4.8703   -2.1965    0.0000 O   0  0  0  0  0  0  0  0  0  0  0  0
   -4.8550    1.4526    0.0000 O   0  0  0  0  0  0  0  0  0  0  0  0
   -1.3350   -0.6965    0.0000 N   0  0  0  0  0  0  0  0  0  0  0  0
   -0.4533   -1.9100    0.0000 N   0  0  0  0  0  0  0  0  0  0  0  0
    2.2723   -2.1965    0.0000 N   0  0  0  0  0  0  0  0  0  0  0  0
    0.9732    0.0535    0.0000 C   0  0  0  0  0  0  0  0  0  0  0  0
   -0.4533    0.5169    0.0000 C   0  0  0  0  0  0  0  0  0  0  0  0
    0.9732   -1.4465    0.0000 C   0  0  0  0  0  0  0  0  0  0  0  0
   -0.9170    1.9437    0.0000 C   0  0  0  0  0  0  0  0  0  0  0  0
    2.2723    0.8035    0.0000 C   0  0  0  0  0  0  0  0  0  0  0  0
   -2.8477    3.6820    0.0000 C   0  0  0  0  0  0  0  0  0  0  0  0
   -2.3840    2.2555    0.0000 C   0  0  0  0  0  0  0  0  0  0  0  0
    3.5712   -1.4465    0.0000 C   0  0  0  0  0  0  0  0  0  0  0  0
    3.5712    0.0535    0.0000 C   0  0  0  0  0  0  0  0  0  0  0  0
   -4.3148    3.9939    0.0000 C   0  0  0  0  0  0  0  0  0  0  0  0
    0.0869    3.0584    0.0000 C   0  0  0  0  0  0  0  0  0  0  0  0
   -1.8439    4.7968    0.0000 C   0  0  0  0  0  0  0  0  0  0  0  0
   -5.3186    2.8791    0.0000 C   0  0  0  0  0  0  0  0  0  0  0  0
   -0.3768    4.4850    0.0000 C   0  0  0  0  0  0  0  0  0  0  0  0
    2.2723    2.3035    0.0000 C   0  0  0  0  0  0  0  0  0  0  0  0
   -4.7784    5.4206    0.0000 C   0  0  0  0  0  0  0  0  0  0  0  0
   -6.7857    3.1911    0.0000 C   0  0  0  0  0  0  0  0  0  0  0  0
   -6.2457    5.7324    0.0000 C   0  0  0  0  0  0  0  0  0  0  0  0
   -7.2493    4.6177    0.0000 C   0  0  0  0  0  0  0  0  0  0  0  0
   -5.8588    0.3379    0.0000 C   0  0  0  0  0  0  0  0  0  0  0  0
   -5.3951   -1.0887    0.0000 C   0  0  0  0  0  0  0  0  0  0  0  0
  1 13  1  0  0  0  0
  2 18  1  0  0  0  0
  2 25  1  0  0  0  0
  3  4  1  0  0  0  0
  3  7  2  0  0  0  0
  4  8  1  0  0  0  0
  5  8  2  0  0  0  0
  5 13  1  0  0  0  0
  6  7  1  0  0  0  0
  6  8  1  0  0  0  0
  6 10  2  0  0  0  0
  7  9  1  0  0  0  0
  9 12  2  0  0  0  0
  9 16  1  0  0  0  0
 10 14  1  0  0  0  0
 10 20  1  0  0  0  0
 11 12  1  0  0  0  0
 11 15  1  0  0  0  0
 11 17  2  0  0  0  0
 13 14  2  0  0  0  0
 15 18  1  0  0  0  0
 15 21  2  0  0  0  0
 16 19  2  0  0  0  0
 17 19  1  0  0  0  0
 18 22  2  0  0  0  0
 21 23  1  0  0  0  0
 22 24  1  0  0  0  0
 23 24  2  0  0  0  0
 25 26  1  0  0  0  0
M  END
> <Value>
5.300000202445418

> <Relation>
<

> <SourceURI>
mol:CHEMBL1983070

$$$$

Generated by Molecular Materials Informatics

 22 25  0  0  0  0  0  0  0  0999 V2000
    4.0166    1.1531    0.0000 C   0  0  0  0  0  0  0  0  0  0  0  0
    6.6196   -0.3519    0.0000 C   0  0  0  0  0  0  0  0  0  0  0  0
    6.6143    1.1597    0.0000 C   0  0  0  0  0  0  0  0  0  0  0  0
    5.3122    1.9043    0.0000 C   0  0  0  0  0  0  0  0  0  0  0  0
    7.9065    1.9130    0.0000 C   0  0  0  0  0  0  0  0  0  0  0  0
    9.2102    1.1641    0.0000 C   0  0  0  0  0  0  0  0  0  0  0  0
   10.5067    1.9185    0.0000 C   0  0  0  0  0  0  0  0  0  0  0  0
   10.5018    3.4216    0.0000 N   0  0  0  0  0  0  0  0  0  0  0  0
    9.1897    4.1673    0.0000 C   0  0  0  0  0  0  0  0  0  0  0  0
    7.8983    3.4085    0.0000 N   0  0  0  0  0  0  0  0  0  0  0  0
    9.1788    5.6687    0.0000 O   0  0  0  0  0  0  0  0  0  0  0  0
   11.8050    1.1761    0.0000 C   0  0  0  0  0  0  0  0  0  0  0  0
   11.8076   -0.3277    0.0000 C   0  0  0  0  0  0  0  0  0  0  0  0
   13.1090   -1.0740    0.0000 C   0  0  0  0  0  0  0  0  0  0  0  0
   14.4088   -0.3188    0.0000 C   0  0  0  0  0  0  0  0  0  0  0  0
   14.3989    1.1904    0.0000 C   0  0  0  0  0  0  0  0  0  0  0  0
   13.0964    1.9300    0.0000 C   0  0  0  0  0  0  0  0  0  0  0  0
    5.3155   -1.1042    0.0000 C   0  0  0  0  0  0  0  0  0  0  0  0
    4.0192   -0.3512    0.0000 C   0  0  0  0  0  0  0  0  0  0  0  0
    2.9023   -1.3513    0.0000 N   0  0  0  0  0  0  0  0  0  0  0  0
    3.5086   -2.7227    0.0000 N   0  0  0  0  0  0  0  0  0  0  0  0
    4.9998   -2.5698    0.0000 C   0  0  0  0  0  0  0  0  0  0  0  0
  3  5  1  0  0  0  0
 18  2  2  0  0  0  0
  9 11  2  0  0  0  0
  1 19  2  0  0  0  0
  5  6  1  0  0  0  0
 12 13  2  0  0  0  0
  2  3  1  0  0  0  0
 13 14  1  0  0  0  0
  6  7  2  0  0  0  0
 14 15  2  0  0  0  0
 15 16  1  0  0  0  0
  7  8  1  0  0  0  0
 16 17  2  0  0  0  0
 17 12  1  0  0  0  0
  7 12  1  0  0  0  0
 18 19  1  0  0  0  0
  3  4  2  0  0  0  0
  8  9  1  0  0  0  0
  4  1  1  0  0  0  0
  9 10  1  0  0  0  0
 10  5  2  0  0  0  0
 19 20  1  0  0  0  0
 20 21  1  0  0  0  0
 21 22  2  0  0  0  0
 22 18  1  0  0  0  0
M  END
> <Value>
7.299988937677887

> <Relation>
=

> <SourceURI>
mol:CHEMBL526133

$$$$

Generated by Molecular Materials Informatics

 28 32  0  0  0  0  0  0  0  0999 V2000
   11.1086   -6.2390    0.0000 O   0  0  0  0  0  0  0  0  0  0  0  0
    3.6473    2.7549    0.0000 N   0  0  0  0  0  0  0  0  0  0  0  0
    5.4812    0.7181    0.0000 N   0  0  0  0  0  0  0  0  0  0  0  0
    5.2713    4.5585    0.0000 N   0  0  0  0  0  0  0  0  0  0  0  0
    3.8041    4.2467    0.0000 N   0  0  0  0  0  0  0  0  0  0  0  0
    7.4884    2.9476    0.0000 N   0  0  0  0  0  0  0  0  0  0  0  0
    8.8384   -2.9839    0.0000 N   0  0  0  0  0  0  0  0  0  0  0  0
    7.4119   -3.4473    0.0000 N   0  0  0  0  0  0  0  0  0  0  0  0
   -2.8479    5.0049    0.0000 N   0  0  0  0  0  0  0  0  0  0  0  0
    5.0175    2.1447    0.0000 C   0  0  0  0  0  0  0  0  0  0  0  0
    6.0213    3.2594    0.0000 C   0  0  0  0  0  0  0  0  0  0  0  0
    6.9483    0.4063    0.0000 C   0  0  0  0  0  0  0  0  0  0  0  0
    7.4119   -1.0202    0.0000 C   0  0  0  0  0  0  0  0  0  0  0  0
    7.9521    1.5210    0.0000 C   0  0  0  0  0  0  0  0  0  0  0  0
    2.3483    2.0049    0.0000 C   0  0  0  0  0  0  0  0  0  0  0  0
    1.0492    2.7549    0.0000 C   0  0  0  0  0  0  0  0  0  0  0  0
    8.8384   -1.4839    0.0000 C   0  0  0  0  0  0  0  0  0  0  0  0
    6.5303   -2.2339    0.0000 C   0  0  0  0  0  0  0  0  0  0  0  0
   -1.5488    2.7549    0.0000 C   0  0  0  0  0  0  0  0  0  0  0  0
   -0.2499    2.0049    0.0000 C   0  0  0  0  0  0  0  0  0  0  0  0
   -1.5488    4.2549    0.0000 C   0  0  0  0  0  0  0  0  0  0  0  0
    1.0492    4.2549    0.0000 C   0  0  0  0  0  0  0  0  0  0  0  0
   -0.2499    5.0049    0.0000 C   0  0  0  0  0  0  0  0  0  0  0  0
   -2.8479    2.0049    0.0000 C   0  0  0  0  0  0  0  0  0  0  0  0
   10.0519   -3.8655    0.0000 C   0  0  0  0  0  0  0  0  0  0  0  0
   -4.1470    2.7549    0.0000 C   0  0  0  0  0  0  0  0  0  0  0  0
   -4.1470    4.2549    0.0000 C   0  0  0  0  0  0  0  0  0  0  0  0
    9.8952   -5.3573    0.0000 C   0  0  0  0  0  0  0  0  0  0  0  0
  1 28  1  0  0  0  0
  2  5  1  0  0  0  0
  2 10  1  0  0  0  0
  2 15  1  0  0  0  0
  3 10  2  0  0  0  0
  3 12  1  0  0  0  0
  4  5  2  0  0  0  0
  4 11  1  0  0  0  0
  6 11  2  0  0  0  0
  6 14  1  0  0  0  0
  7  8  1  0  0  0  0
  7 17  1  0  0  0  0
  7 25  1  0  0  0  0
  8 18  2  0  0  0  0
  9 21  1  0  0  0  0
  9 27  2  0  0  0  0
 10 11  1  0  0  0  0
 12 13  1  0  0  0  0
 12 14  2  0  0  0  0
 13 17  2  0  0  0  0
 13 18  1  0  0  0  0
 15 16  1  0  0  0  0
 16 20  1  0  0  0  0
 16 22  2  0  0  0  0
 19 20  2  0  0  0  0
 19 21  1  0  0  0  0
 19 24  1  0  0  0  0
 21 23  2  0  0  0  0
 22 23  1  0  0  0  0
 24 26  2  0  0  0  0
 25 28  1  0  0  0  0
 26 27  1  0  0  0  0
M  END
> <Value>
5.300000202445418

> <Relation>
<

> <SourceURI>
mol:CHEMBL2001019

$$$$

Generated by Molecular Materials Informatics

 28 31  0  0  0  0  0  0  0  0999 V2000
    3.7303   -7.1263    0.0000 N   0  0  0  0  0  0  0  0  0  0  0  0
    3.7303   -8.6264    0.0000 C   0  0  0  0  0  0  0  0  0  0  0  0
    5.0249   -9.3687    0.0000 N   0  0  0  0  0  0  0  0  0  0  0  0
    5.0249   -6.3688    0.0000 C   0  0  0  0  0  0  0  0  0  0  0  0
    6.3196   -7.1263    0.0000 C   0  0  0  0  0  0  0  0  0  0  0  0
    6.3132   -8.6264    0.0000 C   0  0  0  0  0  0  0  0  0  0  0  0
    7.7724   -9.4913    0.0000 N   0  0  0  0  0  0  0  0  0  0  0  0
    8.9050   -8.6373    0.0000 C   0  0  0  0  0  0  0  0  0  0  0  0
    8.9114   -7.1374    0.0000 C   0  0  0  0  0  0  0  0  0  0  0  0
    7.6146   -6.3777    0.0000 C   0  0  0  0  0  0  0  0  0  0  0  0
   10.2153   -6.4033    0.0000 O   0  0  0  0  0  0  0  0  0  0  0  0
   10.2000   -9.3947    0.0000 O   0  0  0  0  0  0  0  0  0  0  0  0
    7.7069  -10.8777    0.0000 C   0  0  0  0  0  0  0  0  0  0  0  0
    2.4324   -9.3782    0.0000 N   0  0  0  0  0  0  0  0  0  0  0  0
    2.4346  -10.8782    0.0000 C   0  0  0  0  0  0  0  0  0  0  0  0
    1.1239  -11.6242    0.0000 C   0  0  0  0  0  0  0  0  0  0  0  0
    1.1225  -13.1177    0.0000 C   0  0  0  0  0  0  0  0  0  0  0  0
    2.4193  -13.8728    0.0000 O   0  0  0  0  0  0  0  0  0  0  0  0
    3.7207  -13.1232    0.0000 C   0  0  0  0  0  0  0  0  0  0  0  0
    3.7250  -11.6184    0.0000 C   0  0  0  0  0  0  0  0  0  0  0  0
   11.5061   -7.1674    0.0000 C   0  0  0  0  0  0  0  0  0  0  0  0
   11.4817   -8.6660    0.0000 C   0  0  0  0  0  0  0  0  0  0  0  0
   12.7711   -9.4298    0.0000 C   0  0  0  0  0  0  0  0  0  0  0  0
   14.0799   -8.6940    0.0000 C   0  0  0  0  0  0  0  0  0  0  0  0
   14.0915   -7.1862    0.0000 C   0  0  0  0  0  0  0  0  0  0  0  0
   12.8011   -6.4291    0.0000 C   0  0  0  0  0  0  0  0  0  0  0  0
   12.8104   -4.9290    0.0000 F   0  0  0  0  0  0  0  0  0  0  0  0
   15.3718   -9.4562    0.0000 F   0  0  0  0  0  0  0  0  0  0  0  0
  1  4  2  0  0  0  0
  2 14  1  0  0  0  0
  2  3  2  0  0  0  0
 14 15  1  0  0  0  0
 15 16  1  0  0  0  0
  3  6  1  0  0  0  0
  5  4  1  0  0  0  0
  5 10  1  0  0  0  0
  6  7  1  0  0  0  0
  7  8  1  0  0  0  0
 15 20  1  0  0  0  0
 16 17  1  0  0  0  0
 17 18  1  0  0  0  0
 18 19  1  0  0  0  0
 19 20  1  0  0  0  0
  8  9  1  0  0  0  0
 11 21  1  0  0  0  0
  9 10  2  0  0  0  0
 21 22  2  0  0  0  0
  5  6  2  0  0  0  0
 22 23  1  0  0  0  0
  9 11  1  0  0  0  0
 23 24  2  0  0  0  0
 24 25  1  0  0  0  0
  8 12  2  0  0  0  0
 25 26  2  0  0  0  0
 26 21  1  0  0  0  0
  1  2  1  0  0  0  0
 26 27  1  0  0  0  0
  7 13  1  0  0  0  0
 24 28  1  0  0  0  0
M  END
> <Value>
5.899998417198648

> <Relation>
<

> <SourceURI>
mol:CHEMBL1230122

$$$$

Generated by Molecular Materials Informatics

 25 27  0  0  0  0  0  0  0  0999 V2000
   14.4404   -4.2791    0.0000 C   0  0  0  0  0  0  0  0  0  0  0  0
   14.4404   -5.7850    0.0000 C   0  0  0  0  0  0  0  0  0  0  0  0
   15.7400   -6.5302    0.0000 C   0  0  0  0  0  0  0  0  0  0  0  0
   17.0396   -5.7850    0.0000 N   0  0  0  0  0  0  0  0  0  0  0  0
   17.0396   -4.2791    0.0000 C   0  0  0  0  0  0  0  0  0  0  0  0
   15.7400   -3.5185    0.0000 C   0  0  0  0  0  0  0  0  0  0  0  0
   13.1399   -3.5337    0.0000 C   0  0  0  0  0  0  0  0  0  0  0  0
   11.8394   -4.2866    0.0000 N   0  0  0  0  0  0  0  0  0  0  0  0
   10.5389   -3.5413    0.0000 C   0  0  0  0  0  0  0  0  0  0  0  0
   10.3773   -2.0510    0.0000 N   0  0  0  0  0  0  0  0  0  0  0  0
    8.9102   -1.7442    0.0000 C   0  0  0  0  0  0  0  0  0  0  0  0
    8.1649   -3.0447    0.0000 C   0  0  0  0  0  0  0  0  0  0  0  0
    9.1714   -4.1554    0.0000 S   0  0  0  0  0  0  0  0  0  0  0  0
    6.6602   -3.0394    0.0000 S   0  0  0  0  0  0  0  0  0  0  0  0
    5.9073   -4.3399    0.0000 C   0  0  0  0  0  0  0  0  0  0  0  0
    4.4089   -4.3399    0.0000 C   0  0  0  0  0  0  0  0  0  0  0  0
    3.5299   -3.1259    0.0000 O   0  0  0  0  0  0  0  0  0  0  0  0
    2.1032   -3.5892    0.0000 C   0  0  0  0  0  0  0  0  0  0  0  0
    2.1056   -5.0895    0.0000 C   0  0  0  0  0  0  0  0  0  0  0  0
    3.5337   -5.5484    0.0000 N   0  0  0  0  0  0  0  0  0  0  0  0
    0.8845   -2.7048    0.0000 C   0  0  0  0  0  0  0  0  0  0  0  0
    0.8724   -1.1990    0.0000 C   0  0  0  0  0  0  0  0  0  0  0  0
    2.1806   -1.9442    0.0000 C   0  0  0  0  0  0  0  0  0  0  0  0
   -0.4281   -3.4501    0.0000 C   0  0  0  0  0  0  0  0  0  0  0  0
   13.1366   -2.0278    0.0000 O   0  0  0  0  0  0  0  0  0  0  0  0
 11 12  2  0  0  0  0
 13  9  1  0  0  0  0
 12 14  1  0  0  0  0
  1  7  1  0  0  0  0
 14 15  1  0  0  0  0
  1  2  1  0  0  0  0
 15 16  1  0  0  0  0
 17 18  1  0  0  0  0
  7  8  1  0  0  0  0
  1  6  1  0  0  0  0
  8  9  1  0  0  0  0
 12 13  1  0  0  0  0
 16 17  1  0  0  0  0
 18 19  2  0  0  0  0
 19 20  1  0  0  0  0
 20 16  2  0  0  0  0
  2  3  1  0  0  0  0
 18 21  1  0  0  0  0
 10 11  1  0  0  0  0
 21 22  1  0  0  0  0
  3  4  1  0  0  0  0
 21 23  1  0  0  0  0
  4  5  1  0  0  0  0
 21 24  1  0  0  0  0
  5  6  1  0  0  0  0
  7 25  2  0  0  0  0
  9 10  2  0  0  0  0
M  END
> <Value>
5.300000202445418

> <Relation>
<

> <SourceURI>
mol:CHEMBL296468

$$$$

Generated by Molecular Materials Informatics

 15 17  0  0  0  0  0  0  0  0999 V2000
    1.9815   -1.5184    0.0000 S   0  0  0  0  0  0  0  0  0  0  0  0
   -1.1454   -2.4369    0.0000 O   0  0  0  0  0  0  0  0  0  0  0  0
    4.6770   -0.5833    0.0000 N   0  0  0  0  0  0  0  0  0  0  0  0
    5.1125    0.8522    0.0000 N   0  0  0  0  0  0  0  0  0  0  0  0
    0.1606    1.8694    0.0000 N   0  0  0  0  0  0  0  0  0  0  0  0
   -1.7356    0.0932    0.0000 N   0  0  0  0  0  0  0  0  0  0  0  0
    2.6857    0.8043    0.0000 C   0  0  0  0  0  0  0  0  0  0  0  0
    3.1774   -0.6129    0.0000 C   0  0  0  0  0  0  0  0  0  0  0  0
    1.1861    0.7747    0.0000 C   0  0  0  0  0  0  0  0  0  0  0  0
    0.7508   -0.6608    0.0000 C   0  0  0  0  0  0  0  0  0  0  0  0
    3.8817    1.7098    0.0000 C   0  0  0  0  0  0  0  0  0  0  0  0
   -0.7101   -1.0015    0.0000 C   0  0  0  0  0  0  0  0  0  0  0  0
   -1.3001    1.5287    0.0000 C   0  0  0  0  0  0  0  0  0  0  0  0
    3.8521    3.2094    0.0000 C   0  0  0  0  0  0  0  0  0  0  0  0
    5.5825   -1.7793    0.0000 C   0  0  0  0  0  0  0  0  0  0  0  0
  1  8  1  0  0  0  0
  1 10  1  0  0  0  0
  2 12  2  0  0  0  0
  3  4  1  0  0  0  0
  3  8  1  0  0  0  0
  3 15  1  0  0  0  0
  4 11  2  0  0  0  0
  5  9  1  0  0  0  0
  5 13  2  0  0  0  0
  6 12  1  0  0  0  0
  6 13  1  0  0  0  0
  7  8  2  0  0  0  0
  7  9  1  0  0  0  0
  7 11  1  0  0  0  0
  9 10  2  0  0  0  0
 10 12  1  0  0  0  0
 11 14  1  0  0  0  0
M  END
> <Value>
4.300000029139088

> <Relation>
=

> <SourceURI>
mol:CHEMBL1967538

$$$$

Generated by Molecular Materials Informatics

 26 30  0  0  0  0  0  0  0  0999 V2000
   -6.9531    5.2022    0.0000 O   0  0  0  0  0  0  0  0  0  0  0  0
   -2.2631   -6.3874    0.0000 N   0  0  0  0  0  0  0  0  0  0  0  0
   -2.2631   -3.9603    0.0000 N   0  0  0  0  0  0  0  0  0  0  0  0
   -5.2709    3.1250    0.0000 N   0  0  0  0  0  0  0  0  0  0  0  0
   -4.6449   -5.1739    0.0000 N   0  0  0  0  0  0  0  0  0  0  0  0
   -6.8949    1.3213    0.0000 C   0  0  0  0  0  0  0  0  0  0  0  0
   -7.6449    0.0222    0.0000 C   0  0  0  0  0  0  0  0  0  0  0  0
   -7.6449    2.6202    0.0000 C   0  0  0  0  0  0  0  0  0  0  0  0
   -6.8949   -1.2768    0.0000 C   0  0  0  0  0  0  0  0  0  0  0  0
   -6.6411    3.7350    0.0000 C   0  0  0  0  0  0  0  0  0  0  0  0
   -0.8365   -5.9239    0.0000 C   0  0  0  0  0  0  0  0  0  0  0  0
   -0.8365   -4.4239    0.0000 C   0  0  0  0  0  0  0  0  0  0  0  0
   -3.1449   -5.1739    0.0000 C   0  0  0  0  0  0  0  0  0  0  0  0
   -5.4276    1.6331    0.0000 C   0  0  0  0  0  0  0  0  0  0  0  0
   -9.1449    0.0222    0.0000 C   0  0  0  0  0  0  0  0  0  0  0  0
   -9.1449    2.6202    0.0000 C   0  0  0  0  0  0  0  0  0  0  0  0
   -5.3949   -3.8748    0.0000 C   0  0  0  0  0  0  0  0  0  0  0  0
   -5.3949   -1.2768    0.0000 C   0  0  0  0  0  0  0  0  0  0  0  0
   -7.6449   -2.5758    0.0000 C   0  0  0  0  0  0  0  0  0  0  0  0
   -9.8949    1.3213    0.0000 C   0  0  0  0  0  0  0  0  0  0  0  0
   -4.6449   -2.5758    0.0000 C   0  0  0  0  0  0  0  0  0  0  0  0
   -6.8949   -3.8748    0.0000 C   0  0  0  0  0  0  0  0  0  0  0  0
    0.4624   -6.6739    0.0000 C   0  0  0  0  0  0  0  0  0  0  0  0
    0.4624   -3.6739    0.0000 C   0  0  0  0  0  0  0  0  0  0  0  0
    1.7615   -5.9239    0.0000 C   0  0  0  0  0  0  0  0  0  0  0  0
    1.7615   -4.4239    0.0000 C   0  0  0  0  0  0  0  0  0  0  0  0
  1 10  2  0  0  0  0
  2 11  1  0  0  0  0
  2 13  2  0  0  0  0
  3 12  1  0  0  0  0
  3 13  1  0  0  0  0
  4 10  1  0  0  0  0
  4 14  1  0  0  0  0
  5 13  1  0  0  0  0
  5 17  1  0  0  0  0
  6  7  1  0  0  0  0
  6  8  2  0  0  0  0
  6 14  1  0  0  0  0
  7  9  1  0  0  0  0
  7 15  2  0  0  0  0
  8 10  1  0  0  0  0
  8 16  1  0  0  0  0
  9 18  2  0  0  0  0
  9 19  1  0  0  0  0
 11 12  1  0  0  0  0
 11 23  2  0  0  0  0
 12 24  2  0  0  0  0
 15 20  1  0  0  0  0
 16 20  2  0  0  0  0
 17 21  2  0  0  0  0
 17 22  1  0  0  0  0
 18 21  1  0  0  0  0
 19 22  2  0  0  0  0
 23 25  1  0  0  0  0
 24 26  1  0  0  0  0
 25 26  2  0  0  0  0
M  END
> <Value>
5.899998417198648

> <Relation>
<

> <SourceURI>
mol:CHEMBL1979057

$$$$

Generated by Molecular Materials Informatics

 45 50  0  0  0  0  0  0  0  0999 V2000
    3.9983   -2.6888    0.0000 O   0  0  0  0  0  0  0  0  0  0  0  0
    8.0136    6.8413    0.0000 O   0  0  0  0  0  0  0  0  0  0  0  0
   10.8804    5.9571    0.0000 O   0  0  0  0  0  0  0  0  0  0  0  0
   -2.2883   -2.5113    0.0000 O   0  0  0  0  0  0  0  0  0  0  0  0
   -4.2911  -11.2856    0.0000 O   0  0  0  0  0  0  0  0  0  0  0  0
   13.0795    7.9977    0.0000 O   0  0  0  0  0  0  0  0  0  0  0  0
   15.9462    7.1133    0.0000 O   0  0  0  0  0  0  0  0  0  0  0  0
    2.5976    1.9487    0.0000 N   0  0  0  0  0  0  0  0  0  0  0  0
    1.8475   -1.3373    0.0000 N   0  0  0  0  0  0  0  0  0  0  0  0
   -3.6234   -8.3608    0.0000 N   0  0  0  0  0  0  0  0  0  0  0  0
    3.9490    1.2978    0.0000 C   0  0  0  0  0  0  0  0  0  0  0  0
    4.2827   -0.1646    0.0000 C   0  0  0  0  0  0  0  0  0  0  0  0
    6.4820    1.8760    0.0000 C   0  0  0  0  0  0  0  0  0  0  0  0
    1.2461    1.2978    0.0000 C   0  0  0  0  0  0  0  0  0  0  0  0
    0.9123   -0.1646    0.0000 C   0  0  0  0  0  0  0  0  0  0  0  0
    3.3476   -1.3373    0.0000 C   0  0  0  0  0  0  0  0  0  0  0  0
    5.0485    2.3182    0.0000 C   0  0  0  0  0  0  0  0  0  0  0  0
    7.5814    2.8962    0.0000 C   0  0  0  0  0  0  0  0  0  0  0  0
    5.7161   -0.6068    0.0000 C   0  0  0  0  0  0  0  0  0  0  0  0
    6.8158    0.4136    0.0000 C   0  0  0  0  0  0  0  0  0  0  0  0
   -0.5212   -0.6068    0.0000 C   0  0  0  0  0  0  0  0  0  0  0  0
    0.1464    2.3182    0.0000 C   0  0  0  0  0  0  0  0  0  0  0  0
   -1.6207    0.4136    0.0000 C   0  0  0  0  0  0  0  0  0  0  0  0
    7.2478    4.3587    0.0000 C   0  0  0  0  0  0  0  0  0  0  0  0
    8.3472    5.3789    0.0000 C   0  0  0  0  0  0  0  0  0  0  0  0
    9.0149    2.4542    0.0000 C   0  0  0  0  0  0  0  0  0  0  0  0
    9.7807    4.9367    0.0000 C   0  0  0  0  0  0  0  0  0  0  0  0
   -1.2868    1.8760    0.0000 C   0  0  0  0  0  0  0  0  0  0  0  0
   10.1145    3.4744    0.0000 C   0  0  0  0  0  0  0  0  0  0  0  0
   -3.0541   -0.0286    0.0000 C   0  0  0  0  0  0  0  0  0  0  0  0
   -3.3880   -1.4909    0.0000 C   0  0  0  0  0  0  0  0  0  0  0  0
   -3.2896   -6.8985    0.0000 C   0  0  0  0  0  0  0  0  0  0  0  0
   -2.6221   -3.9737    0.0000 C   0  0  0  0  0  0  0  0  0  0  0  0
   12.3136    5.5149    0.0000 C   0  0  0  0  0  0  0  0  0  0  0  0
   -4.3892   -5.8783    0.0000 C   0  0  0  0  0  0  0  0  0  0  0  0
   -1.8563   -6.4563    0.0000 C   0  0  0  0  0  0  0  0  0  0  0  0
   -4.0554   -4.4157    0.0000 C   0  0  0  0  0  0  0  0  0  0  0  0
   -1.5225   -4.9939    0.0000 C   0  0  0  0  0  0  0  0  0  0  0  0
    9.1131    7.8617    0.0000 C   0  0  0  0  0  0  0  0  0  0  0  0
   13.4133    6.5351    0.0000 C   0  0  0  0  0  0  0  0  0  0  0  0
   -5.0569   -8.8030    0.0000 C   0  0  0  0  0  0  0  0  0  0  0  0
   -2.5238   -9.3812    0.0000 C   0  0  0  0  0  0  0  0  0  0  0  0
   -5.3905  -10.2654    0.0000 C   0  0  0  0  0  0  0  0  0  0  0  0
   -2.8576  -10.8436    0.0000 C   0  0  0  0  0  0  0  0  0  0  0  0
   14.8466    6.0931    0.0000 C   0  0  0  0  0  0  0  0  0  0  0  0
  1 16  2  0  0  0  0
  2 25  1  0  0  0  0
  2 39  1  0  0  0  0
  3 27  1  0  0  0  0
  3 34  1  0  0  0  0
  4 31  1  0  0  0  0
  4 33  1  0  0  0  0
  5 43  1  0  0  0  0
  5 44  1  0  0  0  0
  6 40  1  0  0  0  0
  7 45  1  0  0  0  0
  8 11  1  0  0  0  0
  8 14  1  0  0  0  0
  9 15  1  0  0  0  0
  9 16  1  0  0  0  0
 10 32  1  0  0  0  0
 10 41  1  0  0  0  0
 10 42  1  0  0  0  0
 11 12  1  0  0  0  0
 11 17  2  0  0  0  0
 12 16  1  0  0  0  0
 12 19  2  0  0  0  0
 13 17  1  0  0  0  0
 13 18  1  0  0  0  0
 13 20  2  0  0  0  0
 14 15  1  0  0  0  0
 14 22  2  0  0  0  0
 15 21  2  0  0  0  0
 18 24  1  0  0  0  0
 18 26  2  0  0  0  0
 19 20  1  0  0  0  0
 21 23  1  0  0  0  0
 22 28  1  0  0  0  0
 23 28  2  0  0  0  0
 23 30  1  0  0  0  0
 24 25  2  0  0  0  0
 25 27  1  0  0  0  0
 26 29  1  0  0  0  0
 27 29  2  0  0  0  0
 30 31  1  0  0  0  0
 32 35  2  0  0  0  0
 32 36  1  0  0  0  0
 33 37  2  0  0  0  0
 33 38  1  0  0  0  0
 34 40  1  0  0  0  0
 35 37  1  0  0  0  0
 36 38  2  0  0  0  0
 40 45  1  0  0  0  0
 41 43  1  0  0  0  0
 42 44  1  0  0  0  0
M  END
> <Value>
5.899998417198648

> <Relation>
<

> <SourceURI>
mol:CHEMBL1981045

$$$$

Generated by Molecular Materials Informatics

 34 38  0  0  0  0  0  0  0  0999 V2000
   -5.1487    0.2404    0.0000 N   0  0  0  0  0  0  0  0  0  0  0  0
   -5.1487   -1.2596    0.0000 C   0  0  0  0  0  0  0  0  0  0  0  0
   -3.8540   -2.0020    0.0000 C   0  0  0  0  0  0  0  0  0  0  0  0
   -2.5594   -1.2596    0.0000 N   0  0  0  0  0  0  0  0  0  0  0  0
   -2.5594    0.2404    0.0000 C   0  0  0  0  0  0  0  0  0  0  0  0
   -3.8540    0.9980    0.0000 C   0  0  0  0  0  0  0  0  0  0  0  0
   -6.4498    0.9865    0.0000 C   0  0  0  0  0  0  0  0  0  0  0  0
   -1.2616   -2.0114    0.0000 C   0  0  0  0  0  0  0  0  0  0  0  0
    0.0386   -1.2633    0.0000 C   0  0  0  0  0  0  0  0  0  0  0  0
    1.3335   -2.0169    0.0000 C   0  0  0  0  0  0  0  0  0  0  0  0
    1.3287    0.9833    0.0000 C   0  0  0  0  0  0  0  0  0  0  0  0
    0.0347    0.2320    0.0000 C   0  0  0  0  0  0  0  0  0  0  0  0
    2.6356    0.2316    0.0000 C   0  0  0  0  0  0  0  0  0  0  0  0
    2.6358   -1.2771    0.0000 C   0  0  0  0  0  0  0  0  0  0  0  0
    4.0707   -1.7433    0.0000 C   0  0  0  0  0  0  0  0  0  0  0  0
    6.3851   -0.0649    0.0000 C   0  0  0  0  0  0  0  0  0  0  0  0
    6.3914    1.4413    0.0000 N   0  0  0  0  0  0  0  0  0  0  0  0
    4.9609    1.9125    0.0000 N   0  0  0  0  0  0  0  0  0  0  0  0
    4.0705    0.6978    0.0000 C   0  0  0  0  0  0  0  0  0  0  0  0
    4.9507   -0.5244    0.0000 C   0  0  0  0  0  0  0  0  0  0  0  0
    7.5949   -0.9514    0.0000 C   0  0  0  0  0  0  0  0  0  0  0  0
    7.5916   -2.4502    0.0000 C   0  0  0  0  0  0  0  0  0  0  0  0
    9.0162   -2.9196    0.0000 S   0  0  0  0  0  0  0  0  0  0  0  0
    9.9031   -1.7096    0.0000 C   0  0  0  0  0  0  0  0  0  0  0  0
    9.0262   -0.4925    0.0000 C   0  0  0  0  0  0  0  0  0  0  0  0
   11.4031   -1.7156    0.0000 C   0  0  0  0  0  0  0  0  0  0  0  0
   12.8967   -1.7142    0.0000 C   0  0  0  0  0  0  0  0  0  0  0  0
   14.3967   -1.7142    0.0000 C   0  0  0  0  0  0  0  0  0  0  0  0
   15.1467   -3.0131    0.0000 O   0  0  0  0  0  0  0  0  0  0  0  0
   14.3967   -4.3122    0.0000 C   0  0  0  0  0  0  0  0  0  0  0  0
   12.8967   -4.3122    0.0000 C   0  0  0  0  0  0  0  0  0  0  0  0
   12.1467   -5.6112    0.0000 O   0  0  0  0  0  0  0  0  0  0  0  0
   10.6467   -5.6112    0.0000 C   0  0  0  0  0  0  0  0  0  0  0  0
    4.5364   -3.1693    0.0000 O   0  0  0  0  0  0  0  0  0  0  0  0
 19 13  1  0  0  0  0
 19 20  2  0  0  0  0
  1  2  1  0  0  0  0
  4  8  1  0  0  0  0
 17 18  1  0  0  0  0
  1  6  1  0  0  0  0
  8  9  1  0  0  0  0
  2  3  1  0  0  0  0
 16 17  2  0  0  0  0
 18 19  1  0  0  0  0
 20 16  1  0  0  0  0
  9 10  2  0  0  0  0
 16 21  1  0  0  0  0
 21 22  2  0  0  0  0
 10 14  1  0  0  0  0
  3  4  1  0  0  0  0
 13 11  1  0  0  0  0
  4  5  1  0  0  0  0
 22 23  1  0  0  0  0
 23 24  1  0  0  0  0
 24 25  2  0  0  0  0
 25 21  1  0  0  0  0
 11 12  2  0  0  0  0
 24 26  1  0  0  0  0
 12  9  1  0  0  0  0
 26 27  3  0  0  0  0
 13 14  2  0  0  0  0
 27 28  1  0  0  0  0
  5  6  1  0  0  0  0
 28 29  1  0  0  0  0
 29 30  1  0  0  0  0
  1  7  1  0  0  0  0
 30 31  1  0  0  0  0
 14 15  1  0  0  0  0
 31 32  1  0  0  0  0
 15 20  1  0  0  0  0
 32 33  1  0  0  0  0
 15 34  2  0  0  0  0
M  END
> <Value>
5.899998417198648

> <Relation>
<

> <SourceURI>
mol:CHEMBL387971

$$$$

Generated by Molecular Materials Informatics

 24 28  0  0  0  0  0  0  0  0999 V2000
    4.9525    0.3376    0.0000 N   0  0  0  0  0  0  0  0  0  0  0  0
    2.7354   -0.6495    0.0000 N   0  0  0  0  0  0  0  0  0  0  0  0
    4.2025   -0.9615    0.0000 N   0  0  0  0  0  0  0  0  0  0  0  0
   -2.7452    3.5558    0.0000 N   0  0  0  0  0  0  0  0  0  0  0  0
   -3.6268    2.3421    0.0000 N   0  0  0  0  0  0  0  0  0  0  0  0
    3.9488    1.4523    0.0000 C   0  0  0  0  0  0  0  0  0  0  0  0
    2.5785    0.8421    0.0000 C   0  0  0  0  0  0  0  0  0  0  0  0
    4.2607    2.9196    0.0000 C   0  0  0  0  0  0  0  0  0  0  0  0
    1.2796    1.5921    0.0000 C   0  0  0  0  0  0  0  0  0  0  0  0
    3.7972    4.3461    0.0000 C   0  0  0  0  0  0  0  0  0  0  0  0
    5.2645    4.0343    0.0000 C   0  0  0  0  0  0  0  0  0  0  0  0
   -1.3186    1.5921    0.0000 C   0  0  0  0  0  0  0  0  0  0  0  0
   -0.0195    0.8421    0.0000 C   0  0  0  0  0  0  0  0  0  0  0  0
   -1.3186    3.0921    0.0000 C   0  0  0  0  0  0  0  0  0  0  0  0
    1.2796    3.0921    0.0000 C   0  0  0  0  0  0  0  0  0  0  0  0
    6.4443    0.4943    0.0000 C   0  0  0  0  0  0  0  0  0  0  0  0
   -0.0195    3.8421    0.0000 C   0  0  0  0  0  0  0  0  0  0  0  0
   -2.7452    1.1287    0.0000 C   0  0  0  0  0  0  0  0  0  0  0  0
    7.3259   -0.7191    0.0000 C   0  0  0  0  0  0  0  0  0  0  0  0
    8.8178   -0.5624    0.0000 C   0  0  0  0  0  0  0  0  0  0  0  0
    6.7159   -2.0895    0.0000 C   0  0  0  0  0  0  0  0  0  0  0  0
    9.6994   -1.7759    0.0000 C   0  0  0  0  0  0  0  0  0  0  0  0
    7.5976   -3.3029    0.0000 C   0  0  0  0  0  0  0  0  0  0  0  0
    9.0894   -3.1462    0.0000 C   0  0  0  0  0  0  0  0  0  0  0  0
  1  3  1  0  0  0  0
  1  6  1  0  0  0  0
  1 16  1  0  0  0  0
  2  3  2  0  0  0  0
  2  7  1  0  0  0  0
  4  5  1  0  0  0  0
  4 14  1  0  0  0  0
  5 18  2  0  0  0  0
  6  7  2  0  0  0  0
  6  8  1  0  0  0  0
  7  9  1  0  0  0  0
  8 10  1  0  0  0  0
  8 11  1  0  0  0  0
  9 13  1  0  0  0  0
  9 15  2  0  0  0  0
 10 11  1  0  0  0  0
 12 13  2  0  0  0  0
 12 14  1  0  0  0  0
 12 18  1  0  0  0  0
 14 17  2  0  0  0  0
 15 17  1  0  0  0  0
 16 19  1  0  0  0  0
 19 20  2  0  0  0  0
 19 21  1  0  0  0  0
 20 22  1  0  0  0  0
 21 23  2  0  0  0  0
 22 24  2  0  0  0  0
 23 24  1  0  0  0  0
M  END
> <Value>
7.50003813440381

> <Relation>
=

> <SourceURI>
mol:CHEMBL1975418

$$$$

Generated by Molecular Materials Informatics

 15 17  0  0  0  0  0  0  0  0999 V2000
    1.2020   -2.1855    0.0000 O   0  0  0  0  0  0  0  0  0  0  0  0
    5.7020    3.0105    0.0000 O   0  0  0  0  0  0  0  0  0  0  0  0
    2.7020    0.4125    0.0000 N   0  0  0  0  0  0  0  0  0  0  0  0
    4.9520   -0.8866    0.0000 N   0  0  0  0  0  0  0  0  0  0  0  0
    5.7020    0.4125    0.0000 N   0  0  0  0  0  0  0  0  0  0  0  0
    1.2020    0.4125    0.0000 C   0  0  0  0  0  0  0  0  0  0  0  0
    3.4520   -0.8866    0.0000 C   0  0  0  0  0  0  0  0  0  0  0  0
    0.4520   -0.8866    0.0000 C   0  0  0  0  0  0  0  0  0  0  0  0
    3.4520    1.7116    0.0000 C   0  0  0  0  0  0  0  0  0  0  0  0
    2.7020   -2.1855    0.0000 C   0  0  0  0  0  0  0  0  0  0  0  0
    4.9520    1.7116    0.0000 C   0  0  0  0  0  0  0  0  0  0  0  0
    0.4520    1.7116    0.0000 C   0  0  0  0  0  0  0  0  0  0  0  0
   -1.0480   -0.8866    0.0000 C   0  0  0  0  0  0  0  0  0  0  0  0
   -1.0480    1.7116    0.0000 C   0  0  0  0  0  0  0  0  0  0  0  0
   -1.7980    0.4125    0.0000 C   0  0  0  0  0  0  0  0  0  0  0  0
  1  8  1  0  0  0  0
  1 10  1  0  0  0  0
  2 11  2  0  0  0  0
  3  6  1  0  0  0  0
  3  7  1  0  0  0  0
  3  9  1  0  0  0  0
  4  5  1  0  0  0  0
  4  7  2  0  0  0  0
  5 11  1  0  0  0  0
  6  8  1  0  0  0  0
  6 12  2  0  0  0  0
  7 10  1  0  0  0  0
  8 13  2  0  0  0  0
  9 11  1  0  0  0  0
 12 14  1  0  0  0  0
 13 15  1  0  0  0  0
 14 15  2  0  0  0  0
M  END
> <Value>
5.0

> <Relation>
=

> <SourceURI>
mol:CHEMBL1968515

$$$$

Generated by Molecular Materials Informatics

 35 39  0  0  0  0  0  0  0  0999 V2000
   16.7595    1.7897    0.0000 C   0  0  0  0  0  0  0  0  0  0  0  0
   16.7573    0.1939    0.0000 C   0  0  0  0  0  0  0  0  0  0  0  0
   18.1387   -0.6025    0.0000 C   0  0  0  0  0  0  0  0  0  0  0  0
   19.5307    0.1949    0.0000 C   0  0  0  0  0  0  0  0  0  0  0  0
   19.5256    1.7964    0.0000 C   0  0  0  0  0  0  0  0  0  0  0  0
   18.1354    2.5935    0.0000 C   0  0  0  0  0  0  0  0  0  0  0  0
    7.7497   -0.5513    0.0000 C   0  0  0  0  0  0  0  0  0  0  0  0
    7.7462   -2.0428    0.0000 N   0  0  0  0  0  0  0  0  0  0  0  0
    9.0310   -2.7937    0.0000 C   0  0  0  0  0  0  0  0  0  0  0  0
   10.3376   -2.0381    0.0000 C   0  0  0  0  0  0  0  0  0  0  0  0
   10.3380   -0.5418    0.0000 C   0  0  0  0  0  0  0  0  0  0  0  0
    9.0259    0.1985    0.0000 C   0  0  0  0  0  0  0  0  0  0  0  0
   11.6368   -2.7878    0.0000 C   0  0  0  0  0  0  0  0  0  0  0  0
   11.6365   -4.3003    0.0000 C   0  0  0  0  0  0  0  0  0  0  0  0
   12.9200   -5.0390    0.0000 N   0  0  0  0  0  0  0  0  0  0  0  0
   12.9087   -2.0386    0.0000 C   0  0  0  0  0  0  0  0  0  0  0  0
   14.2166   -2.7745    0.0000 C   0  0  0  0  0  0  0  0  0  0  0  0
   14.2198   -4.2848    0.0000 C   0  0  0  0  0  0  0  0  0  0  0  0
   15.5046   -5.0350    0.0000 N   0  0  0  0  0  0  0  0  0  0  0  0
   16.7991   -4.2797    0.0000 C   0  0  0  0  0  0  0  0  0  0  0  0
   16.7958   -2.7769    0.0000 C   0  0  0  0  0  0  0  0  0  0  0  0
   15.4895   -2.0295    0.0000 N   0  0  0  0  0  0  0  0  0  0  0  0
    6.4487    0.1927    0.0000 N   0  0  0  0  0  0  0  0  0  0  0  0
    6.4429    1.6884    0.0000 C   0  0  0  0  0  0  0  0  0  0  0  0
    5.1641    2.4322    0.0000 C   0  0  0  0  0  0  0  0  0  0  0  0
    3.8688    1.6908    0.0000 N   0  0  0  0  0  0  0  0  0  0  0  0
    3.8675    0.1974    0.0000 C   0  0  0  0  0  0  0  0  0  0  0  0
    5.1616   -0.5544    0.0000 C   0  0  0  0  0  0  0  0  0  0  0  0
    2.5776    2.4398    0.0000 C   0  0  0  0  0  0  0  0  0  0  0  0
   15.4840   -0.5504    0.0000 C   0  0  0  0  0  0  0  0  0  0  0  0
   15.3784    2.5928    0.0000 C   0  0  0  0  0  0  0  0  0  0  0  0
   15.3780    4.1842    0.0000 F   0  0  0  0  0  0  0  0  0  0  0  0
   13.9978    1.7891    0.0000 F   0  0  0  0  0  0  0  0  0  0  0  0
   13.9921    3.3887    0.0000 F   0  0  0  0  0  0  0  0  0  0  0  0
   20.9128   -0.5988    0.0000 Cl  0  0  0  0  0  0  0  0  0  0  0  0
 10 13  1  0  0  0  0
 13 14  1  0  0  0  0
 14 15  2  0  0  0  0
 15 18  1  0  0  0  0
 17 16  1  0  0  0  0
 16 13  2  0  0  0  0
 17 18  2  0  0  0  0
 17 22  1  0  0  0  0
 18 19  1  0  0  0  0
 19 20  1  0  0  0  0
 20 21  1  0  0  0  0
 21 22  1  0  0  0  0
  7 23  1  0  0  0  0
 23 24  1  0  0  0  0
  4  5  1  0  0  0  0
  2  3  1  0  0  0  0
  5  6  2  0  0  0  0
  6  1  1  0  0  0  0
  1  2  2  0  0  0  0
 23 28  1  0  0  0  0
 24 25  1  0  0  0  0
 25 26  1  0  0  0  0
 26 27  1  0  0  0  0
 27 28  1  0  0  0  0
  3  4  2  0  0  0  0
 26 29  1  0  0  0  0
  7  8  1  0  0  0  0
 22 30  1  0  0  0  0
 30  2  1  0  0  0  0
  8  9  2  0  0  0  0
  1 31  1  0  0  0  0
  9 10  1  0  0  0  0
 31 32  1  0  0  0  0
 10 11  2  0  0  0  0
 31 33  1  0  0  0  0
 11 12  1  0  0  0  0
 31 34  1  0  0  0  0
 12  7  2  0  0  0  0
  4 35  1  0  0  0  0
M  END
> <Value>
5.40000018605658

> <Relation>
<

> <SourceURI>
mol:CHEMBL1164180

$$$$

Generated by Molecular Materials Informatics

 41 44  0  0  0  0  0  0  0  0999 V2000
    0.0878  -13.8388    0.0000 C   0  0  0  0  0  0  0  0  0  0  0  0
    0.0856  -15.3430    0.0000 C   0  0  0  0  0  0  0  0  0  0  0  0
    1.3853  -16.0937    0.0000 C   0  0  0  0  0  0  0  0  0  0  0  0
    1.3820  -13.0882    0.0000 C   0  0  0  0  0  0  0  0  0  0  0  0
    2.6828  -13.8321    0.0000 C   0  0  0  0  0  0  0  0  0  0  0  0
    2.6842  -15.3355    0.0000 C   0  0  0  0  0  0  0  0  0  0  0  0
    3.9848  -16.0826    0.0000 N   0  0  0  0  0  0  0  0  0  0  0  0
    5.2848  -15.3286    0.0000 C   0  0  0  0  0  0  0  0  0  0  0  0
    5.2761  -13.8195    0.0000 N   0  0  0  0  0  0  0  0  0  0  0  0
    3.9744  -13.0792    0.0000 C   0  0  0  0  0  0  0  0  0  0  0  0
    3.9666  -11.5791    0.0000 N   0  0  0  0  0  0  0  0  0  0  0  0
    5.2615  -10.8222    0.0000 C   0  0  0  0  0  0  0  0  0  0  0  0
    6.6333  -11.4168    0.0000 C   0  0  0  0  0  0  0  0  0  0  0  0
    7.6310  -10.2968    0.0000 C   0  0  0  0  0  0  0  0  0  0  0  0
    6.8741   -9.0017    0.0000 N   0  0  0  0  0  0  0  0  0  0  0  0
    5.4086   -9.3215    0.0000 N   0  0  0  0  0  0  0  0  0  0  0  0
    9.1237  -10.4457    0.0000 C   0  0  0  0  0  0  0  0  0  0  0  0
    9.7410  -11.8128    0.0000 C   0  0  0  0  0  0  0  0  0  0  0  0
   11.2336  -11.9615    0.0000 N   0  0  0  0  0  0  0  0  0  0  0  0
    8.8657  -13.0310    0.0000 O   0  0  0  0  0  0  0  0  0  0  0  0
   11.8510  -13.3286    0.0000 C   0  0  0  0  0  0  0  0  0  0  0  0
   10.9710  -14.5397    0.0000 C   0  0  0  0  0  0  0  0  0  0  0  0
   11.5872  -15.9057    0.0000 C   0  0  0  0  0  0  0  0  0  0  0  0
   13.0814  -16.0555    0.0000 C   0  0  0  0  0  0  0  0  0  0  0  0
   13.9572  -14.8283    0.0000 C   0  0  0  0  0  0  0  0  0  0  0  0
   13.3361  -13.4672    0.0000 C   0  0  0  0  0  0  0  0  0  0  0  0
   15.4503  -14.9719    0.0000 F   0  0  0  0  0  0  0  0  0  0  0  0
   -1.2140  -16.0921    0.0000 O   0  0  0  0  0  0  0  0  0  0  0  0
   -2.5124  -15.3410    0.0000 C   0  0  0  0  0  0  0  0  0  0  0  0
   -3.8120  -16.0899    0.0000 C   0  0  0  0  0  0  0  0  0  0  0  0
   -5.1106  -15.3390    0.0000 C   0  0  0  0  0  0  0  0  0  0  0  0
   -6.4102  -16.0879    0.0000 N   0  0  0  0  0  0  0  0  0  0  0  0
   -7.7086  -15.3368    0.0000 C   0  0  0  0  0  0  0  0  0  0  0  0
   -6.4113  -17.5879    0.0000 C   0  0  0  0  0  0  0  0  0  0  0  0
   -7.7110  -18.3368    0.0000 C   0  0  0  0  0  0  0  0  0  0  0  0
   -7.7075  -13.8368    0.0000 C   0  0  0  0  0  0  0  0  0  0  0  0
   -9.0059  -13.0859    0.0000 O   0  0  0  0  0  0  0  0  0  0  0  0
   -9.0048  -11.5859    0.0000 P   0  0  0  0  0  0  0  0  0  0  0  0
   -9.0157  -10.0811    0.0000 O   0  0  0  0  0  0  0  0  0  0  0  0
   -7.5048  -11.5810    0.0000 O   0  0  0  0  0  0  0  0  0  0  0  0
  -10.5046  -11.5955    0.0000 O   0  0  0  0  0  0  0  0  0  0  0  0
  4  1  1  0  0  0  0
 18 20  2  0  0  0  0
  9 10  2  0  0  0  0
 19 21  1  0  0  0  0
 10  5  1  0  0  0  0
 21 22  2  0  0  0  0
 22 23  1  0  0  0  0
 10 11  1  0  0  0  0
 23 24  2  0  0  0  0
  2  3  1  0  0  0  0
 24 25  1  0  0  0  0
 11 12  1  0  0  0  0
 25 26  2  0  0  0  0
 26 21  1  0  0  0  0
 12 13  1  0  0  0  0
 25 27  1  0  0  0  0
  5  6  1  0  0  0  0
  2 28  1  0  0  0  0
  3  6  2  0  0  0  0
 28 29  1  0  0  0  0
  6  7  1  0  0  0  0
 29 30  1  0  0  0  0
  1  2  2  0  0  0  0
 30 31  1  0  0  0  0
 13 14  2  0  0  0  0
 31 32  1  0  0  0  0
 14 15  1  0  0  0  0
 32 33  1  0  0  0  0
 15 16  1  0  0  0  0
 32 34  1  0  0  0  0
 16 12  2  0  0  0  0
 34 35  1  0  0  0  0
  7  8  2  0  0  0  0
 33 36  1  0  0  0  0
 14 17  1  0  0  0  0
 36 37  1  0  0  0  0
  5  4  2  0  0  0  0
 37 38  1  0  0  0  0
 17 18  1  0  0  0  0
 38 39  2  0  0  0  0
  8  9  1  0  0  0  0
 38 40  1  0  0  0  0
 18 19  1  0  0  0  0
 38 41  1  0  0  0  0
M  END
> <Value>
5.300000202445418

> <Relation>
<

> <SourceURI>
mol:CHEMBL415049

$$$$

Generated by Molecular Materials Informatics

 32 34  0  0  0  0  0  0  0  0999 V2000
   12.0121  -12.7885    0.0000 C   0  0  0  0  0  0  0  0  0  0  0  0
   12.0121  -14.2885    0.0000 C   0  0  0  0  0  0  0  0  0  0  0  0
   14.4592  -14.2657    0.0000 C   0  0  0  0  0  0  0  0  0  0  0  0
   14.5197  -12.7128    0.0000 O   0  0  0  0  0  0  0  0  0  0  0  0
   12.0187   -8.2792    0.0000 C   0  0  0  0  0  0  0  0  0  0  0  0
   10.7212   -6.0243    0.0000 C   0  0  0  0  0  0  0  0  0  0  0  0
   10.7190   -7.5286    0.0000 C   0  0  0  0  0  0  0  0  0  0  0  0
   13.3214   -7.5277    0.0000 C   0  0  0  0  0  0  0  0  0  0  0  0
   13.3161   -6.0177    0.0000 C   0  0  0  0  0  0  0  0  0  0  0  0
   12.0154   -5.2737    0.0000 C   0  0  0  0  0  0  0  0  0  0  0  0
   12.0110   -3.7737    0.0000 Cl  0  0  0  0  0  0  0  0  0  0  0  0
   14.6216   -8.2757    0.0000 N   0  0  0  0  0  0  0  0  0  0  0  0
   15.9194   -7.5236    0.0000 C   0  0  0  0  0  0  0  0  0  0  0  0
   17.2103   -8.2672    0.0000 N   0  0  0  0  0  0  0  0  0  0  0  0
   15.9170   -6.0236    0.0000 O   0  0  0  0  0  0  0  0  0  0  0  0
   17.1799   -9.7668    0.0000 C   0  0  0  0  0  0  0  0  0  0  0  0
   15.8343  -11.9855    0.0000 C   0  0  0  0  0  0  0  0  0  0  0  0
   17.1190  -12.7630    0.0000 C   0  0  0  0  0  0  0  0  0  0  0  0
   18.4374  -12.0315    0.0000 N   0  0  0  0  0  0  0  0  0  0  0  0
   18.4617  -10.5355    0.0000 C   0  0  0  0  0  0  0  0  0  0  0  0
   15.8948  -10.5561    0.0000 N   0  0  0  0  0  0  0  0  0  0  0  0
   12.0183   -9.7792    0.0000 O   0  0  0  0  0  0  0  0  0  0  0  0
   10.7192  -10.5290    0.0000 C   0  0  0  0  0  0  0  0  0  0  0  0
   10.7187  -12.0290    0.0000 C   0  0  0  0  0  0  0  0  0  0  0  0
   17.1243  -14.2630    0.0000 C   0  0  0  0  0  0  0  0  0  0  0  0
   17.1336  -15.7594    0.0000 N   0  0  0  0  0  0  0  0  0  0  0  0
    9.4219   -5.2746    0.0000 O   0  0  0  0  0  0  0  0  0  0  0  0
    8.1230   -6.0248    0.0000 C   0  0  0  0  0  0  0  0  0  0  0  0
    8.1234   -7.5248    0.0000 C   0  0  0  0  0  0  0  0  0  0  0  0
    6.8247   -8.2752    0.0000 C   0  0  0  0  0  0  0  0  0  0  0  0
    6.8248   -9.7752    0.0000 O   0  0  0  0  0  0  0  0  0  0  0  0
    9.4227   -8.2746    0.0000 O   0  0  0  0  0  0  0  0  0  0  0  0
 16 21  2  0  0  0  0
  8  9  1  0  0  0  0
 21 17  1  0  0  0  0
  1  2  1  0  0  0  0
 17 18  2  0  0  0  0
  9 10  2  0  0  0  0
 18 19  1  0  0  0  0
 10  6  1  0  0  0  0
 19 20  2  0  0  0  0
 20 16  1  0  0  0  0
 17  4  1  0  0  0  0
  2  3  1  0  0  0  0
 10 11  1  0  0  0  0
  5 22  1  0  0  0  0
  6  7  2  0  0  0  0
 22 23  1  0  0  0  0
  8 12  1  0  0  0  0
 23 24  1  0  0  0  0
 24  1  1  0  0  0  0
  7  5  1  0  0  0  0
 18 25  1  0  0  0  0
 12 13  1  0  0  0  0
 25 26  3  0  0  0  0
  3  4  1  0  0  0  0
  6 27  1  0  0  0  0
 13 14  1  0  0  0  0
 27 28  1  0  0  0  0
  5  8  2  0  0  0  0
 28 29  1  0  0  0  0
 13 15  2  0  0  0  0
 29 30  1  0  0  0  0
 30 31  1  0  0  0  0
 14 16  1  0  0  0  0
 29 32  1  0  0  0  0
M  END
> <Value>
5.899998417198648

> <Relation>
<

> <SourceURI>
mol:CHEMBL223257

$$$$

Generated by Molecular Materials Informatics

 23 25  0  0  0  0  0  0  0  0999 V2000
    2.8255    1.1812    0.0000 O   0  0  0  0  0  0  0  0  0  0  0  0
    5.4236    1.1812    0.0000 N   0  0  0  0  0  0  0  0  0  0  0  0
    4.1245   -8.5685    0.0000 N   0  0  0  0  0  0  0  0  0  0  0  0
    4.1245   -1.0688    0.0000 C   0  0  0  0  0  0  0  0  0  0  0  0
    4.1245   -4.0687    0.0000 C   0  0  0  0  0  0  0  0  0  0  0  0
    4.1245   -5.5686    0.0000 C   0  0  0  0  0  0  0  0  0  0  0  0
    4.1245    0.4312    0.0000 C   0  0  0  0  0  0  0  0  0  0  0  0
    5.4236   -1.8187    0.0000 C   0  0  0  0  0  0  0  0  0  0  0  0
    2.8255   -1.8187    0.0000 C   0  0  0  0  0  0  0  0  0  0  0  0
    5.4236   -3.3187    0.0000 C   0  0  0  0  0  0  0  0  0  0  0  0
    2.8255   -3.3187    0.0000 C   0  0  0  0  0  0  0  0  0  0  0  0
    5.4236    2.6811    0.0000 C   0  0  0  0  0  0  0  0  0  0  0  0
    6.7224    3.4311    0.0000 C   0  0  0  0  0  0  0  0  0  0  0  0
    2.8255   -6.3186    0.0000 C   0  0  0  0  0  0  0  0  0  0  0  0
    5.4236   -6.3186    0.0000 C   0  0  0  0  0  0  0  0  0  0  0  0
    6.7224    4.9311    0.0000 C   0  0  0  0  0  0  0  0  0  0  0  0
    8.0215    2.6811    0.0000 C   0  0  0  0  0  0  0  0  0  0  0  0
    2.8255   -7.8186    0.0000 C   0  0  0  0  0  0  0  0  0  0  0  0
    5.4236   -7.8186    0.0000 C   0  0  0  0  0  0  0  0  0  0  0  0
    4.1245    3.4311    0.0000 C   0  0  0  0  0  0  0  0  0  0  0  0
    8.0215    5.6810    0.0000 C   0  0  0  0  0  0  0  0  0  0  0  0
    9.3205    3.4311    0.0000 C   0  0  0  0  0  0  0  0  0  0  0  0
    9.3205    4.9311    0.0000 C   0  0  0  0  0  0  0  0  0  0  0  0
  1  7  2  0  0  0  0
  2  7  1  0  0  0  0
  2 12  1  0  0  0  0
  3 18  2  0  0  0  0
  3 19  1  0  0  0  0
  4  7  1  0  0  0  0
  4  8  2  0  0  0  0
  4  9  1  0  0  0  0
  5  6  1  0  0  0  0
  5 10  2  0  0  0  0
  5 11  1  0  0  0  0
  6 14  2  0  0  0  0
  6 15  1  0  0  0  0
  8 10  1  0  0  0  0
  9 11  2  0  0  0  0
 12 13  1  0  0  0  0
 12 20  1  0  0  0  0
 13 16  2  0  0  0  0
 13 17  1  0  0  0  0
 14 18  1  0  0  0  0
 15 19  2  0  0  0  0
 16 21  1  0  0  0  0
 17 22  2  0  0  0  0
 21 23  2  0  0  0  0
 22 23  1  0  0  0  0
M  END
> <Value>
5.899998417198648

> <Relation>
<

> <SourceURI>
mol:CHEMBL1999428

$$$$

Generated by Molecular Materials Informatics

 38 42  0  0  0  0  0  0  0  0999 V2000
   -4.4816    4.4437    0.0000 O   0  0  0  0  0  0  0  0  0  0  0  0
    5.9107   -0.0562    0.0000 O   0  0  0  0  0  0  0  0  0  0  0  0
    4.6116   -5.3062    0.0000 O   0  0  0  0  0  0  0  0  0  0  0  0
   -1.8836    1.4437    0.0000 N   0  0  0  0  0  0  0  0  0  0  0  0
   -3.1825    2.1937    0.0000 N   0  0  0  0  0  0  0  0  0  0  0  0
   -1.8836    4.4437    0.0000 N   0  0  0  0  0  0  0  0  0  0  0  0
    0.7145    1.4437    0.0000 N   0  0  0  0  0  0  0  0  0  0  0  0
    2.0134    3.6937    0.0000 N   0  0  0  0  0  0  0  0  0  0  0  0
    3.3125    1.4437    0.0000 N   0  0  0  0  0  0  0  0  0  0  0  0
    2.0134   -5.3062    0.0000 N   0  0  0  0  0  0  0  0  0  0  0  0
    2.0134   -9.8062    0.0000 N   0  0  0  0  0  0  0  0  0  0  0  0
   -0.5845    2.1937    0.0000 C   0  0  0  0  0  0  0  0  0  0  0  0
   -0.5845    3.6937    0.0000 C   0  0  0  0  0  0  0  0  0  0  0  0
   -3.1825    3.6937    0.0000 C   0  0  0  0  0  0  0  0  0  0  0  0
   -1.8836   -0.0562    0.0000 C   0  0  0  0  0  0  0  0  0  0  0  0
    2.0134    2.1937    0.0000 C   0  0  0  0  0  0  0  0  0  0  0  0
    0.7145    4.4437    0.0000 C   0  0  0  0  0  0  0  0  0  0  0  0
   -4.4816    1.4437    0.0000 C   0  0  0  0  0  0  0  0  0  0  0  0
   -0.6700   -0.9379    0.0000 C   0  0  0  0  0  0  0  0  0  0  0  0
   -3.0971   -0.9379    0.0000 C   0  0  0  0  0  0  0  0  0  0  0  0
    3.3125   -0.0562    0.0000 C   0  0  0  0  0  0  0  0  0  0  0  0
   -1.8836    5.9437    0.0000 C   0  0  0  0  0  0  0  0  0  0  0  0
    4.6116   -0.8062    0.0000 C   0  0  0  0  0  0  0  0  0  0  0  0
   -1.1336   -2.3644    0.0000 C   0  0  0  0  0  0  0  0  0  0  0  0
   -2.6336   -2.3644    0.0000 C   0  0  0  0  0  0  0  0  0  0  0  0
    3.3125   -3.0563    0.0000 C   0  0  0  0  0  0  0  0  0  0  0  0
    2.0134   -0.8062    0.0000 C   0  0  0  0  0  0  0  0  0  0  0  0
    4.6116   -2.3062    0.0000 C   0  0  0  0  0  0  0  0  0  0  0  0
    2.0134   -2.3062    0.0000 C   0  0  0  0  0  0  0  0  0  0  0  0
   -5.7807    2.1937    0.0000 C   0  0  0  0  0  0  0  0  0  0  0  0
    3.3125   -4.5563    0.0000 C   0  0  0  0  0  0  0  0  0  0  0  0
    2.0134   -6.8062    0.0000 C   0  0  0  0  0  0  0  0  0  0  0  0
    7.2096   -0.8062    0.0000 C   0  0  0  0  0  0  0  0  0  0  0  0
    0.7145   -7.5563    0.0000 C   0  0  0  0  0  0  0  0  0  0  0  0
    3.3125   -7.5563    0.0000 C   0  0  0  0  0  0  0  0  0  0  0  0
    0.7145   -9.0562    0.0000 C   0  0  0  0  0  0  0  0  0  0  0  0
    3.3125   -9.0562    0.0000 C   0  0  0  0  0  0  0  0  0  0  0  0
    2.0134  -11.3062    0.0000 C   0  0  0  0  0  0  0  0  0  0  0  0
  1 14  2  0  0  0  0
  2 23  1  0  0  0  0
  2 33  1  0  0  0  0
  3 31  2  0  0  0  0
  4  5  1  0  0  0  0
  4 12  1  0  0  0  0
  4 15  1  0  0  0  0
  5 14  1  0  0  0  0
  5 18  1  0  0  0  0
  6 13  1  0  0  0  0
  6 14  1  0  0  0  0
  6 22  1  0  0  0  0
  7 12  2  0  0  0  0
  7 16  1  0  0  0  0
  8 16  2  0  0  0  0
  8 17  1  0  0  0  0
  9 16  1  0  0  0  0
  9 21  1  0  0  0  0
 10 31  1  0  0  0  0
 10 32  1  0  0  0  0
 11 36  1  0  0  0  0
 11 37  1  0  0  0  0
 11 38  1  0  0  0  0
 12 13  1  0  0  0  0
 13 17  2  0  0  0  0
 15 19  1  0  0  0  0
 15 20  1  0  0  0  0
 18 30  1  0  0  0  0
 19 24  1  0  0  0  0
 20 25  1  0  0  0  0
 21 23  1  0  0  0  0
 21 27  2  0  0  0  0
 23 28  2  0  0  0  0
 24 25  1  0  0  0  0
 26 28  1  0  0  0  0
 26 29  2  0  0  0  0
 26 31  1  0  0  0  0
 27 29  1  0  0  0  0
 32 34  1  0  0  0  0
 32 35  1  0  0  0  0
 34 36  1  0  0  0  0
 35 37  1  0  0  0  0
M  END
> <Value>
5.899998417198648

> <Relation>
<

> <SourceURI>
mol:CHEMBL1967560

$$$$

Generated by Molecular Materials Informatics

 27 29  0  0  0  0  0  0  0  0999 V2000
    3.3395   -3.6736    0.0000 O   0  0  0  0  0  0  0  0  0  0  0  0
    7.4221    0.8578    0.0000 O   0  0  0  0  0  0  0  0  0  0  0  0
    6.0533    3.0662    0.0000 O   0  0  0  0  0  0  0  0  0  0  0  0
   -4.2379   -1.3109    0.0000 O   0  5  0  0  0  0  0  0  0  0  0  0
   -4.3190    1.2858    0.0000 O   0  0  0  0  0  0  0  0  0  0  0  0
   -2.1919    5.2513    0.0000 O   0  0  0  0  0  0  0  0  0  0  0  0
    2.4683    0.1982    0.0000 N   0  0  0  0  0  0  0  0  0  0  0  0
    4.7152   -0.7192    0.0000 N   0  0  0  0  0  0  0  0  0  0  0  0
    1.0501   -2.4454    0.0000 N   0  0  0  0  0  0  0  0  0  0  0  0
   -3.5288    0.0109    0.0000 N   0  3  0  0  0  0  0  0  0  0  0  0
   -2.1106    2.6546    0.0000 N   0  0  0  0  0  0  0  0  0  0  0  0
    0.9690    0.1515    0.0000 C   0  0  0  0  0  0  0  0  0  0  0  0
    3.2584   -1.0767    0.0000 C   0  0  0  0  0  0  0  0  0  0  0  0
    3.4366    1.3438    0.0000 C   0  0  0  0  0  0  0  0  0  0  0  0
    0.2599   -1.1703    0.0000 C   0  0  0  0  0  0  0  0  0  0  0  0
    4.8253    0.7768    0.0000 C   0  0  0  0  0  0  0  0  0  0  0  0
    2.5494   -2.3985    0.0000 C   0  0  0  0  0  0  0  0  0  0  0  0
    0.1788    1.4264    0.0000 C   0  0  0  0  0  0  0  0  0  0  0  0
   -1.3205    1.3795    0.0000 C   0  0  0  0  0  0  0  0  0  0  0  0
   -2.0295    0.0577    0.0000 C   0  0  0  0  0  0  0  0  0  0  0  0
   -1.2394   -1.2172    0.0000 C   0  0  0  0  0  0  0  0  0  0  0  0
    6.1003    1.5669    0.0000 C   0  0  0  0  0  0  0  0  0  0  0  0
    3.0790    2.8006    0.0000 C   0  0  0  0  0  0  0  0  0  0  0  0
   -1.4017    3.9764    0.0000 C   0  0  0  0  0  0  0  0  0  0  0  0
    7.4690   -0.6414    0.0000 C   0  0  0  0  0  0  0  0  0  0  0  0
    0.0975    4.0231    0.0000 C   0  0  0  0  0  0  0  0  0  0  0  0
    8.7908   -1.3505    0.0000 C   0  0  0  0  0  0  0  0  0  0  0  0
  1 17  2  0  0  0  0
  2 22  1  0  0  0  0
  2 25  1  0  0  0  0
  3 22  2  0  0  0  0
  4 10  1  0  0  0  0
  5 10  2  0  0  0  0
  6 24  2  0  0  0  0
  7 12  1  0  0  0  0
  7 13  1  0  0  0  0
  7 14  1  0  0  0  0
  8 13  2  0  0  0  0
  8 16  1  0  0  0  0
  9 15  1  0  0  0  0
  9 17  1  0  0  0  0
 10 20  1  0  0  0  0
 11 19  1  0  0  0  0
 11 24  1  0  0  0  0
 12 15  1  0  0  0  0
 12 18  2  0  0  0  0
 13 17  1  0  0  0  0
 14 16  2  0  0  0  0
 14 23  1  0  0  0  0
 15 21  2  0  0  0  0
 16 22  1  0  0  0  0
 18 19  1  0  0  0  0
 19 20  2  0  0  0  0
 20 21  1  0  0  0  0
 24 26  1  0  0  0  0
 25 27  1  0  0  0  0
M  CHG  2   4  -1  10   1
M  END
> <Value>
5.40000018605658

> <Relation>
=

> <SourceURI>
mol:CHEMBL1997611

$$$$

Generated by Molecular Materials Informatics

 27 30  0  0  0  0  0  0  0  0999 V2000
   -7.5668  -17.7249    0.0000 N   0  0  0  0  0  0  0  0  0  0  0  0
   -7.5690  -19.2289    0.0000 C   0  0  0  0  0  0  0  0  0  0  0  0
   -6.2762  -19.9761    0.0000 N   0  0  0  0  0  0  0  0  0  0  0  0
   -6.2793  -16.9708    0.0000 C   0  0  0  0  0  0  0  0  0  0  0  0
   -6.2833  -15.4707    0.0000 N   0  0  0  0  0  0  0  0  0  0  0  0
   -4.9784  -17.7187    0.0000 C   0  0  0  0  0  0  0  0  0  0  0  0
   -4.9782  -19.2208    0.0000 C   0  0  0  0  0  0  0  0  0  0  0  0
   -3.5494  -19.6827    0.0000 O   0  0  0  0  0  0  0  0  0  0  0  0
   -2.6637  -18.4661    0.0000 N   0  0  0  0  0  0  0  0  0  0  0  0
   -3.5496  -17.2566    0.0000 C   0  0  0  0  0  0  0  0  0  0  0  0
   -3.0813  -15.8296    0.0000 C   0  0  0  0  0  0  0  0  0  0  0  0
   -1.6167  -15.5220    0.0000 C   0  0  0  0  0  0  0  0  0  0  0  0
   -1.1553  -14.0965    0.0000 C   0  0  0  0  0  0  0  0  0  0  0  0
   -2.1619  -12.9853    0.0000 C   0  0  0  0  0  0  0  0  0  0  0  0
   -3.6359  -13.3022    0.0000 C   0  0  0  0  0  0  0  0  0  0  0  0
   -4.0906  -14.7274    0.0000 C   0  0  0  0  0  0  0  0  0  0  0  0
   -1.7025  -11.5575    0.0000 N   0  0  0  0  0  0  0  0  0  0  0  0
   -0.2355  -11.2379    0.0000 C   0  0  0  0  0  0  0  0  0  0  0  0
    0.2308   -9.8175    0.0000 O   0  0  0  0  0  0  0  0  0  0  0  0
    0.7722  -12.3532    0.0000 N   0  0  0  0  0  0  0  0  0  0  0  0
    2.2391  -12.0407    0.0000 C   0  0  0  0  0  0  0  0  0  0  0  0
    3.2449  -13.1613    0.0000 C   0  0  0  0  0  0  0  0  0  0  0  0
    4.7107  -12.8497    0.0000 C   0  0  0  0  0  0  0  0  0  0  0  0
    5.1712  -11.4208    0.0000 C   0  0  0  0  0  0  0  0  0  0  0  0
    4.1548  -10.3030    0.0000 C   0  0  0  0  0  0  0  0  0  0  0  0
    2.6927  -10.6205    0.0000 C   0  0  0  0  0  0  0  0  0  0  0  0
    5.7108  -13.9583    0.0000 C   0  0  0  0  0  0  0  0  0  0  0  0
 12 13  2  0  0  0  0
  2  3  1  0  0  0  0
 13 14  1  0  0  0  0
  3  7  2  0  0  0  0
 14 15  2  0  0  0  0
  1  2  2  0  0  0  0
 15 16  1  0  0  0  0
 16 11  2  0  0  0  0
  6  4  2  0  0  0  0
 14 17  1  0  0  0  0
  4  1  1  0  0  0  0
 17 18  1  0  0  0  0
  7  8  1  0  0  0  0
 18 19  2  0  0  0  0
  8  9  1  0  0  0  0
 18 20  1  0  0  0  0
  9 10  2  0  0  0  0
 20 21  1  0  0  0  0
 10  6  1  0  0  0  0
 21 22  2  0  0  0  0
 22 23  1  0  0  0  0
 10 11  1  0  0  0  0
 23 24  2  0  0  0  0
  4  5  1  0  0  0  0
 24 25  1  0  0  0  0
 11 12  1  0  0  0  0
 25 26  2  0  0  0  0
 26 21  1  0  0  0  0
  6  7  1  0  0  0  0
 23 27  1  0  0  0  0
M  END
> <Value>
5.899998417198648

> <Relation>
<

> <SourceURI>
mol:CHEMBL211378

$$$$

Generated by Molecular Materials Informatics

 36 40  0  0  0  0  0  0  0  0999 V2000
    0.2084    3.4419    0.0000 S   0  0  0  0  0  0  0  0  0  0  0  0
   -4.1167   -3.8886    0.0000 O   0  0  0  0  0  0  0  0  0  0  0  0
    6.8311   10.4783    0.0000 O   0  0  0  0  0  0  0  0  0  0  0  0
    4.2331    1.4783    0.0000 N   0  0  0  0  0  0  0  0  0  0  0  0
    2.9340   -0.7717    0.0000 N   0  0  0  0  0  0  0  0  0  0  0  0
   -1.6458   -4.6915    0.0000 N   0  0  0  0  0  0  0  0  0  0  0  0
   -3.5766   -6.4299    0.0000 N   0  0  0  0  0  0  0  0  0  0  0  0
    4.2331    8.9783    0.0000 N   0  0  0  0  0  0  0  0  0  0  0  0
    1.6349    1.4783    0.0000 C   0  0  0  0  0  0  0  0  0  0  0  0
    1.6349    2.9783    0.0000 C   0  0  0  0  0  0  0  0  0  0  0  0
    0.2084    1.0148    0.0000 C   0  0  0  0  0  0  0  0  0  0  0  0
    2.9340    0.7283    0.0000 C   0  0  0  0  0  0  0  0  0  0  0  0
    2.9340    3.7283    0.0000 C   0  0  0  0  0  0  0  0  0  0  0  0
   -0.2551   -0.4117    0.0000 C   0  0  0  0  0  0  0  0  0  0  0  0
   -0.6733    2.2283    0.0000 C   0  0  0  0  0  0  0  0  0  0  0  0
    4.2331    2.9783    0.0000 C   0  0  0  0  0  0  0  0  0  0  0  0
    0.7485   -1.5264    0.0000 C   0  0  0  0  0  0  0  0  0  0  0  0
   -1.7224   -0.7235    0.0000 C   0  0  0  0  0  0  0  0  0  0  0  0
    2.9340    5.2283    0.0000 C   0  0  0  0  0  0  0  0  0  0  0  0
   -1.1822   -3.2650    0.0000 C   0  0  0  0  0  0  0  0  0  0  0  0
    0.2849   -2.9530    0.0000 C   0  0  0  0  0  0  0  0  0  0  0  0
   -2.1860   -2.1502    0.0000 C   0  0  0  0  0  0  0  0  0  0  0  0
    2.9340    6.7283    0.0000 C   0  0  0  0  0  0  0  0  0  0  0  0
   -3.1129   -5.0033    0.0000 C   0  0  0  0  0  0  0  0  0  0  0  0
    2.9340    8.2283    0.0000 C   0  0  0  0  0  0  0  0  0  0  0  0
   -5.0436   -6.7419    0.0000 C   0  0  0  0  0  0  0  0  0  0  0  0
   -5.5073   -8.1684    0.0000 C   0  0  0  0  0  0  0  0  0  0  0  0
   -6.0475   -5.6272    0.0000 C   0  0  0  0  0  0  0  0  0  0  0  0
   -6.9746   -8.4803    0.0000 C   0  0  0  0  0  0  0  0  0  0  0  0
    5.5320    8.2283    0.0000 C   0  0  0  0  0  0  0  0  0  0  0  0
    4.2331   10.4783    0.0000 C   0  0  0  0  0  0  0  0  0  0  0  0
   -7.5147   -5.9390    0.0000 C   0  0  0  0  0  0  0  0  0  0  0  0
   -7.9782   -7.3655    0.0000 C   0  0  0  0  0  0  0  0  0  0  0  0
    6.8311    8.9783    0.0000 C   0  0  0  0  0  0  0  0  0  0  0  0
    5.5320   11.2283    0.0000 C   0  0  0  0  0  0  0  0  0  0  0  0
   -7.4380   -9.9068    0.0000 C   0  0  0  0  0  0  0  0  0  0  0  0
  1 10  1  0  0  0  0
  1 15  1  0  0  0  0
  2 24  2  0  0  0  0
  3 34  1  0  0  0  0
  3 35  1  0  0  0  0
  4 12  1  0  0  0  0
  4 16  2  0  0  0  0
  5 12  1  0  0  0  0
  6 20  1  0  0  0  0
  6 24  1  0  0  0  0
  7 24  1  0  0  0  0
  7 26  1  0  0  0  0
  8 25  1  0  0  0  0
  8 30  1  0  0  0  0
  8 31  1  0  0  0  0
  9 10  1  0  0  0  0
  9 11  1  0  0  0  0
  9 12  2  0  0  0  0
 10 13  2  0  0  0  0
 11 14  1  0  0  0  0
 11 15  2  0  0  0  0
 13 16  1  0  0  0  0
 13 19  1  0  0  0  0
 14 17  2  0  0  0  0
 14 18  1  0  0  0  0
 17 21  1  0  0  0  0
 18 22  2  0  0  0  0
 19 23  3  0  0  0  0
 20 21  2  0  0  0  0
 20 22  1  0  0  0  0
 23 25  1  0  0  0  0
 26 27  2  0  0  0  0
 26 28  1  0  0  0  0
 27 29  1  0  0  0  0
 28 32  2  0  0  0  0
 29 33  2  0  0  0  0
 29 36  1  0  0  0  0
 30 34  1  0  0  0  0
 31 35  1  0  0  0  0
 32 33  1  0  0  0  0
M  END
> <Value>
5.899998417198648

> <Relation>
<

> <SourceURI>
mol:CHEMBL1982465

$$$$

Generated by Molecular Materials Informatics

 36 41  0  0  0  0  0  0  0  0999 V2000
  -11.1128   -9.7750    0.0000 O   0  0  0  0  0  0  0  0  0  0  0  0
   -5.6791  -11.9093    0.0000 O   0  0  0  0  0  0  0  0  0  0  0  0
   -1.9888   -2.5690    0.0000 O   0  0  0  0  0  0  0  0  0  0  0  0
  -10.1550   -7.2796    0.0000 N   0  0  0  0  0  0  0  0  0  0  0  0
    1.8726    3.3349    0.0000 N   0  0  0  0  0  0  0  0  0  0  0  0
   -1.9122   -6.5367    0.0000 N   0  0  0  0  0  0  0  0  0  0  0  0
   -1.0619    0.2842    0.0000 N   0  0  0  0  0  0  0  0  0  0  0  0
   -7.7810   -7.7842    0.0000 C   0  0  0  0  0  0  0  0  0  0  0  0
   -8.5310   -9.0832    0.0000 C   0  0  0  0  0  0  0  0  0  0  0  0
   -8.7846   -6.6694    0.0000 C   0  0  0  0  0  0  0  0  0  0  0  0
   -9.9981   -8.7714    0.0000 C   0  0  0  0  0  0  0  0  0  0  0  0
   -5.8503   -6.0458    0.0000 C   0  0  0  0  0  0  0  0  0  0  0  0
   -6.3138   -7.4723    0.0000 C   0  0  0  0  0  0  0  0  0  0  0  0
   -8.3212   -5.2429    0.0000 C   0  0  0  0  0  0  0  0  0  0  0  0
   -4.3831   -5.7338    0.0000 C   0  0  0  0  0  0  0  0  0  0  0  0
   -7.9208  -10.4536    0.0000 C   0  0  0  0  0  0  0  0  0  0  0  0
   -6.8539   -4.9311    0.0000 C   0  0  0  0  0  0  0  0  0  0  0  0
   -6.4290  -10.6103    0.0000 C   0  0  0  0  0  0  0  0  0  0  0  0
    3.2991    1.3715    0.0000 C   0  0  0  0  0  0  0  0  0  0  0  0
    1.8726    0.9079    0.0000 C   0  0  0  0  0  0  0  0  0  0  0  0
   -3.9195   -4.3073    0.0000 C   0  0  0  0  0  0  0  0  0  0  0  0
    3.2991    2.8715    0.0000 C   0  0  0  0  0  0  0  0  0  0  0  0
   -3.3793   -6.8485    0.0000 C   0  0  0  0  0  0  0  0  0  0  0  0
   -2.4524   -3.9955    0.0000 C   0  0  0  0  0  0  0  0  0  0  0  0
    0.9910    2.1215    0.0000 C   0  0  0  0  0  0  0  0  0  0  0  0
    1.4092   -0.5187    0.0000 C   0  0  0  0  0  0  0  0  0  0  0  0
    4.5982    0.6215    0.0000 C   0  0  0  0  0  0  0  0  0  0  0  0
   -5.4254   -9.4956    0.0000 C   0  0  0  0  0  0  0  0  0  0  0  0
   -1.4486   -5.1102    0.0000 C   0  0  0  0  0  0  0  0  0  0  0  0
    4.5982    3.6214    0.0000 C   0  0  0  0  0  0  0  0  0  0  0  0
   -0.0581   -0.8305    0.0000 C   0  0  0  0  0  0  0  0  0  0  0  0
   -0.5217   -2.2572    0.0000 C   0  0  0  0  0  0  0  0  0  0  0  0
    5.8973    1.3715    0.0000 C   0  0  0  0  0  0  0  0  0  0  0  0
   -4.2120  -11.5975    0.0000 C   0  0  0  0  0  0  0  0  0  0  0  0
   -4.0551  -10.1057    0.0000 C   0  0  0  0  0  0  0  0  0  0  0  0
    5.8973    2.8715    0.0000 C   0  0  0  0  0  0  0  0  0  0  0  0
  1 11  2  0  0  0  0
  2 18  1  0  0  0  0
  2 34  1  0  0  0  0
  3 24  1  0  0  0  0
  3 32  1  0  0  0  0
  4 10  1  0  0  0  0
  4 11  1  0  0  0  0
  5 22  1  0  0  0  0
  5 25  1  0  0  0  0
  6 23  2  0  0  0  0
  6 29  1  0  0  0  0
  7 31  1  0  0  0  0
  8  9  1  0  0  0  0
  8 10  1  0  0  0  0
  8 13  2  0  0  0  0
  9 11  1  0  0  0  0
  9 16  2  0  0  0  0
 10 14  2  0  0  0  0
 12 13  1  0  0  0  0
 12 15  1  0  0  0  0
 12 17  2  0  0  0  0
 14 17  1  0  0  0  0
 15 21  2  0  0  0  0
 15 23  1  0  0  0  0
 16 18  1  0  0  0  0
 18 28  2  0  0  0  0
 19 20  1  0  0  0  0
 19 22  1  0  0  0  0
 19 27  2  0  0  0  0
 20 25  2  0  0  0  0
 20 26  1  0  0  0  0
 21 24  1  0  0  0  0
 22 30  2  0  0  0  0
 24 29  2  0  0  0  0
 26 31  1  0  0  0  0
 27 33  1  0  0  0  0
 28 35  1  0  0  0  0
 30 36  1  0  0  0  0
 31 32  1  0  0  0  0
 33 36  2  0  0  0  0
 34 35  2  0  0  0  0
M  END
> <Value>
7.700057099977233

> <Relation>
=

> <SourceURI>
mol:CHEMBL2001751

$$$$

Generated by Molecular Materials Informatics

 28 29  0  0  0  0  0  0  0  0999 V2000
    4.7738    6.9938    0.0000 O   0  0  0  0  0  0  0  0  0  0  0  0
   -6.9172   10.7437    0.0000 O   0  0  0  0  0  0  0  0  0  0  0  0
   -8.2162    8.4938    0.0000 N   0  0  0  0  0  0  0  0  0  0  0  0
    6.0728    9.2437    0.0000 N   0  0  0  0  0  0  0  0  0  0  0  0
  -13.4122    8.4938    0.0000 N   0  0  0  0  0  0  0  0  0  0  0  0
   11.2688    9.2437    0.0000 N   0  0  0  0  0  0  0  0  0  0  0  0
    3.4747    9.2437    0.0000 N   0  0  0  0  0  0  0  0  0  0  0  0
   -5.6183    8.4938    0.0000 N   0  0  0  0  0  0  0  0  0  0  0  0
  -10.8141    8.4938    0.0000 C   0  0  0  0  0  0  0  0  0  0  0  0
    8.6707    9.2437    0.0000 C   0  0  0  0  0  0  0  0  0  0  0  0
   -9.5153    9.2437    0.0000 C   0  0  0  0  0  0  0  0  0  0  0  0
    7.3719    8.4938    0.0000 C   0  0  0  0  0  0  0  0  0  0  0  0
  -12.1132    9.2437    0.0000 C   0  0  0  0  0  0  0  0  0  0  0  0
    9.9698    8.4938    0.0000 C   0  0  0  0  0  0  0  0  0  0  0  0
  -10.8141    6.9938    0.0000 C   0  0  0  0  0  0  0  0  0  0  0  0
    8.6707   10.7437    0.0000 C   0  0  0  0  0  0  0  0  0  0  0  0
    4.7738    8.4938    0.0000 C   0  0  0  0  0  0  0  0  0  0  0  0
   -6.9172    9.2437    0.0000 C   0  0  0  0  0  0  0  0  0  0  0  0
  -12.1132    6.2438    0.0000 C   0  0  0  0  0  0  0  0  0  0  0  0
    9.9698   11.4937    0.0000 C   0  0  0  0  0  0  0  0  0  0  0  0
  -13.4122    6.9938    0.0000 C   0  0  0  0  0  0  0  0  0  0  0  0
   11.2688   10.7437    0.0000 C   0  0  0  0  0  0  0  0  0  0  0  0
    2.1758    8.4938    0.0000 C   0  0  0  0  0  0  0  0  0  0  0  0
   -4.3192    9.2437    0.0000 C   0  0  0  0  0  0  0  0  0  0  0  0
    0.8768    9.2437    0.0000 C   0  0  0  0  0  0  0  0  0  0  0  0
   -3.0202    8.4938    0.0000 C   0  0  0  0  0  0  0  0  0  0  0  0
   -0.4223    8.4938    0.0000 C   0  0  0  0  0  0  0  0  0  0  0  0
   -1.7211    9.2437    0.0000 C   0  0  0  0  0  0  0  0  0  0  0  0
  1 17  2  0  0  0  0
  2 18  2  0  0  0  0
  3 11  1  0  0  0  0
  3 18  1  0  0  0  0
  4 12  1  0  0  0  0
  4 17  1  0  0  0  0
  5 13  2  0  0  0  0
  5 21  1  0  0  0  0
  6 14  2  0  0  0  0
  6 22  1  0  0  0  0
  7 17  1  0  0  0  0
  7 23  1  0  0  0  0
  8 18  1  0  0  0  0
  8 24  1  0  0  0  0
  9 11  1  0  0  0  0
  9 13  1  0  0  0  0
  9 15  2  0  0  0  0
 10 12  1  0  0  0  0
 10 14  1  0  0  0  0
 10 16  2  0  0  0  0
 15 19  1  0  0  0  0
 16 20  1  0  0  0  0
 19 21  2  0  0  0  0
 20 22  2  0  0  0  0
 23 25  1  0  0  0  0
 24 26  1  0  0  0  0
 25 27  1  0  0  0  0
 26 28  1  0  0  0  0
 27 28  1  0  0  0  0
M  END
> <Value>
5.899998417198648

> <Relation>
<

> <SourceURI>
mol:CHEMBL2003420

$$$$

Generated by Molecular Materials Informatics

 23 25  0  0  0  0  0  0  0  0999 V2000
   -3.6552    2.5621    0.0000 Cl  0  0  0  0  0  0  0  0  0  0  0  0
    1.5409    4.0621    0.0000 O   0  0  0  0  0  0  0  0  0  0  0  0
    5.4379    1.8121    0.0000 O   0  0  0  0  0  0  0  0  0  0  0  0
    4.1389    4.0621    0.0000 O   0  0  0  0  0  0  0  0  0  0  0  0
   -1.0572   -0.4378    0.0000 N   0  0  0  0  0  0  0  0  0  0  0  0
   -3.6552   -0.4378    0.0000 N   0  0  0  0  0  0  0  0  0  0  0  0
    1.5409   -0.4378    0.0000 N   0  0  0  0  0  0  0  0  0  0  0  0
   -5.0077   -4.8252    0.0000 N   0  0  0  0  0  0  0  0  0  0  0  0
    0.2418    1.8121    0.0000 C   0  0  0  0  0  0  0  0  0  0  0  0
    0.2418    0.3122    0.0000 C   0  0  0  0  0  0  0  0  0  0  0  0
   -1.0572    2.5621    0.0000 C   0  0  0  0  0  0  0  0  0  0  0  0
   -2.3561    0.3122    0.0000 C   0  0  0  0  0  0  0  0  0  0  0  0
   -2.3561    1.8121    0.0000 C   0  0  0  0  0  0  0  0  0  0  0  0
    1.5409    2.5621    0.0000 C   0  0  0  0  0  0  0  0  0  0  0  0
    2.8398    1.8121    0.0000 C   0  0  0  0  0  0  0  0  0  0  0  0
    2.8398    0.3122    0.0000 C   0  0  0  0  0  0  0  0  0  0  0  0
    4.1389    2.5621    0.0000 C   0  0  0  0  0  0  0  0  0  0  0  0
   -3.8119   -1.9296    0.0000 C   0  0  0  0  0  0  0  0  0  0  0  0
   -5.0255    0.1723    0.0000 C   0  0  0  0  0  0  0  0  0  0  0  0
   -1.0572    4.0621    0.0000 C   0  0  0  0  0  0  0  0  0  0  0  0
   -5.2791   -2.2414    0.0000 C   0  0  0  0  0  0  0  0  0  0  0  0
   -6.0291   -0.9424    0.0000 C   0  0  0  0  0  0  0  0  0  0  0  0
   -5.8893   -3.6118    0.0000 C   0  0  0  0  0  0  0  0  0  0  0  0
  1 13  1  0  0  0  0
  2 14  2  0  0  0  0
  3 17  2  0  0  0  0
  4 17  1  0  0  0  0
  5 10  1  0  0  0  0
  5 12  2  0  0  0  0
  6 12  1  0  0  0  0
  6 18  1  0  0  0  0
  6 19  1  0  0  0  0
  7 10  1  0  0  0  0
  7 16  1  0  0  0  0
  8 23  1  0  0  0  0
  9 10  2  0  0  0  0
  9 11  1  0  0  0  0
  9 14  1  0  0  0  0
 11 13  2  0  0  0  0
 11 20  1  0  0  0  0
 12 13  1  0  0  0  0
 14 15  1  0  0  0  0
 15 16  2  0  0  0  0
 15 17  1  0  0  0  0
 18 21  1  0  0  0  0
 19 22  1  0  0  0  0
 21 22  1  0  0  0  0
 21 23  1  0  0  0  0
M  END
> <Value>
5.899998417198648

> <Relation>
<

> <SourceURI>
mol:CHEMBL1999774

$$$$

Generated by Molecular Materials Informatics

 27 30  0  0  0  0  0  0  0  0999 V2000
   -7.9240   -7.5562    0.0000 O   0  0  0  0  0  0  0  0  0  0  0  0
   -1.4289   -2.3063    0.0000 O   0  0  0  0  0  0  0  0  0  0  0  0
   -1.4289   -5.3062    0.0000 N   0  0  0  0  0  0  0  0  0  0  0  0
   -0.1300   -4.5562    0.0000 N   0  0  0  0  0  0  0  0  0  0  0  0
   -4.0270   -5.3062    0.0000 C   0  0  0  0  0  0  0  0  0  0  0  0
   -5.3261   -4.5562    0.0000 C   0  0  0  0  0  0  0  0  0  0  0  0
   -2.7279   -4.5562    0.0000 C   0  0  0  0  0  0  0  0  0  0  0  0
   -6.6250   -5.3062    0.0000 C   0  0  0  0  0  0  0  0  0  0  0  0
   -6.6250   -6.8062    0.0000 C   0  0  0  0  0  0  0  0  0  0  0  0
   -4.0270   -6.8062    0.0000 C   0  0  0  0  0  0  0  0  0  0  0  0
    2.4682   -0.0563    0.0000 C   0  0  0  0  0  0  0  0  0  0  0  0
   -5.3261   -3.0562    0.0000 C   0  0  0  0  0  0  0  0  0  0  0  0
    1.1691   -0.8063    0.0000 C   0  0  0  0  0  0  0  0  0  0  0  0
   -2.7279   -3.0562    0.0000 C   0  0  0  0  0  0  0  0  0  0  0  0
   -5.3261   -7.5562    0.0000 C   0  0  0  0  0  0  0  0  0  0  0  0
    2.4682    1.4437    0.0000 C   0  0  0  0  0  0  0  0  0  0  0  0
   -4.0270   -2.3063    0.0000 C   0  0  0  0  0  0  0  0  0  0  0  0
    1.1691   -2.3063    0.0000 C   0  0  0  0  0  0  0  0  0  0  0  0
   -0.1300   -3.0562    0.0000 C   0  0  0  0  0  0  0  0  0  0  0  0
   -0.1300   -0.0563    0.0000 C   0  0  0  0  0  0  0  0  0  0  0  0
    3.7671   -0.8063    0.0000 C   0  0  0  0  0  0  0  0  0  0  0  0
    1.1691    2.1937    0.0000 C   0  0  0  0  0  0  0  0  0  0  0  0
   -7.9240   -4.5562    0.0000 C   0  0  0  0  0  0  0  0  0  0  0  0
    3.7671    2.1937    0.0000 C   0  0  0  0  0  0  0  0  0  0  0  0
   -0.1300    1.4437    0.0000 C   0  0  0  0  0  0  0  0  0  0  0  0
    5.0661   -0.0563    0.0000 C   0  0  0  0  0  0  0  0  0  0  0  0
    5.0661    1.4437    0.0000 C   0  0  0  0  0  0  0  0  0  0  0  0
  1  9  1  0  0  0  0
  2 19  2  0  0  0  0
  3  4  1  0  0  0  0
  3  7  2  0  0  0  0
  4 19  1  0  0  0  0
  5  6  2  0  0  0  0
  5  7  1  0  0  0  0
  5 10  1  0  0  0  0
  6  8  1  0  0  0  0
  6 12  1  0  0  0  0
  7 14  1  0  0  0  0
  8  9  2  0  0  0  0
  8 23  1  0  0  0  0
  9 15  1  0  0  0  0
 10 15  2  0  0  0  0
 11 13  1  0  0  0  0
 11 16  1  0  0  0  0
 11 21  2  0  0  0  0
 12 17  1  0  0  0  0
 13 18  1  0  0  0  0
 13 20  2  0  0  0  0
 14 17  1  0  0  0  0
 16 22  1  0  0  0  0
 16 24  2  0  0  0  0
 18 19  1  0  0  0  0
 20 25  1  0  0  0  0
 21 26  1  0  0  0  0
 22 25  2  0  0  0  0
 24 27  1  0  0  0  0
 26 27  2  0  0  0  0
M  END
> <Value>
5.899998417198648

> <Relation>
<

> <SourceURI>
mol:CHEMBL1972659

$$$$

Generated by Molecular Materials Informatics

 22 25  0  0  0  0  0  0  0  0999 V2000
    2.2153   -4.6271    0.0000 O   0  0  0  0  0  0  0  0  0  0  0  0
    2.2153   -0.1271    0.0000 N   0  0  0  0  0  0  0  0  0  0  0  0
   -0.5103    4.0865    0.0000 N   0  0  0  0  0  0  0  0  0  0  0  0
    3.5144    2.1229    0.0000 N   0  0  0  0  0  0  0  0  0  0  0  0
    2.2153    4.3729    0.0000 N   0  0  0  0  0  0  0  0  0  0  0  0
    0.9162    2.1229    0.0000 C   0  0  0  0  0  0  0  0  0  0  0  0
    2.2153    1.3729    0.0000 C   0  0  0  0  0  0  0  0  0  0  0  0
   -0.5103    1.6594    0.0000 C   0  0  0  0  0  0  0  0  0  0  0  0
    0.9162    3.6229    0.0000 C   0  0  0  0  0  0  0  0  0  0  0  0
   -0.9738    0.2329    0.0000 C   0  0  0  0  0  0  0  0  0  0  0  0
   -1.3920    2.8729    0.0000 C   0  0  0  0  0  0  0  0  0  0  0  0
    3.5144    3.6229    0.0000 C   0  0  0  0  0  0  0  0  0  0  0  0
    3.5144   -0.8771    0.0000 C   0  0  0  0  0  0  0  0  0  0  0  0
    0.9162   -0.8771    0.0000 C   0  0  0  0  0  0  0  0  0  0  0  0
    0.0298   -0.8818    0.0000 C   0  0  0  0  0  0  0  0  0  0  0  0
   -2.4411   -0.0789    0.0000 C   0  0  0  0  0  0  0  0  0  0  0  0
    3.5144   -2.3771    0.0000 C   0  0  0  0  0  0  0  0  0  0  0  0
    0.9162   -2.3771    0.0000 C   0  0  0  0  0  0  0  0  0  0  0  0
    2.2153   -3.1271    0.0000 C   0  0  0  0  0  0  0  0  0  0  0  0
   -0.4338   -2.3084    0.0000 C   0  0  0  0  0  0  0  0  0  0  0  0
   -2.9047   -1.5056    0.0000 C   0  0  0  0  0  0  0  0  0  0  0  0
   -1.9009   -2.6204    0.0000 C   0  0  0  0  0  0  0  0  0  0  0  0
  1 19  1  0  0  0  0
  2  7  1  0  0  0  0
  2 13  1  0  0  0  0
  2 14  1  0  0  0  0
  3  9  1  0  0  0  0
  3 11  1  0  0  0  0
  4  7  2  0  0  0  0
  4 12  1  0  0  0  0
  5  9  1  0  0  0  0
  5 12  2  0  0  0  0
  6  7  1  0  0  0  0
  6  8  1  0  0  0  0
  6  9  2  0  0  0  0
  8 10  1  0  0  0  0
  8 11  2  0  0  0  0
 10 15  2  0  0  0  0
 10 16  1  0  0  0  0
 13 17  1  0  0  0  0
 14 18  1  0  0  0  0
 15 20  1  0  0  0  0
 16 21  2  0  0  0  0
 17 19  1  0  0  0  0
 18 19  1  0  0  0  0
 20 22  2  0  0  0  0
 21 22  1  0  0  0  0
M  END
> <Value>
5.899998417198648

> <Relation>
<

> <SourceURI>
mol:CHEMBL1973395

$$$$

Generated by Molecular Materials Informatics

 29 32  0  0  0  0  0  0  0  0999 V2000
   -0.0738  -14.0559    0.0000 C   0  0  0  0  0  0  0  0  0  0  0  0
    1.2289  -13.3044    0.0000 C   0  0  0  0  0  0  0  0  0  0  0  0
    1.2236  -11.7943    0.0000 C   0  0  0  0  0  0  0  0  0  0  0  0
   -0.0771  -11.0505    0.0000 C   0  0  0  0  0  0  0  0  0  0  0  0
   -0.0867   -9.5558    0.0000 C   0  0  0  0  0  0  0  0  0  0  0  0
    1.2130   -8.8029    0.0000 C   0  0  0  0  0  0  0  0  0  0  0  0
    1.2092   -7.3044    0.0000 C   0  0  0  0  0  0  0  0  0  0  0  0
   -0.0931   -6.5568    0.0000 C   0  0  0  0  0  0  0  0  0  0  0  0
   -1.3940   -7.3187    0.0000 C   0  0  0  0  0  0  0  0  0  0  0  0
   -1.3838   -8.8147    0.0000 C   0  0  0  0  0  0  0  0  0  0  0  0
   -2.8043  -13.7686    0.0000 O   0  0  0  0  0  0  0  0  0  0  0  0
   -1.3734  -13.3052    0.0000 C   0  0  0  0  0  0  0  0  0  0  0  0
   -1.3740  -11.7999    0.0000 C   0  0  0  0  0  0  0  0  0  0  0  0
   -2.8069  -11.3378    0.0000 C   0  0  0  0  0  0  0  0  0  0  0  0
   -3.6870  -12.5588    0.0000 N   0  0  0  0  0  0  0  0  0  0  0  0
   -3.2747   -9.9125    0.0000 N   0  0  0  0  0  0  0  0  0  0  0  0
   -0.0995   -5.0568    0.0000 N   0  0  0  0  0  0  0  0  0  0  0  0
    1.1963   -4.3012    0.0000 C   0  0  0  0  0  0  0  0  0  0  0  0
    2.4985   -5.0457    0.0000 N   0  0  0  0  0  0  0  0  0  0  0  0
    1.1898   -2.8014    0.0000 O   0  0  0  0  0  0  0  0  0  0  0  0
    3.7943   -4.2901    0.0000 C   0  0  0  0  0  0  0  0  0  0  0  0
    5.0902   -5.0411    0.0000 C   0  0  0  0  0  0  0  0  0  0  0  0
    6.3851   -4.2870    0.0000 C   0  0  0  0  0  0  0  0  0  0  0  0
    6.3795   -2.7854    0.0000 C   0  0  0  0  0  0  0  0  0  0  0  0
    5.0681   -2.0414    0.0000 C   0  0  0  0  0  0  0  0  0  0  0  0
    3.7786   -2.7999    0.0000 C   0  0  0  0  0  0  0  0  0  0  0  0
    5.0562   -0.5414    0.0000 Cl  0  0  0  0  0  0  0  0  0  0  0  0
    7.6742   -2.0281    0.0000 O   0  0  0  0  0  0  0  0  0  0  0  0
    8.9774   -2.7706    0.0000 C   0  0  0  0  0  0  0  0  0  0  0  0
 11 12  1  0  0  0  0
 13 14  1  0  0  0  0
 14 15  2  0  0  0  0
 15 11  1  0  0  0  0
 14 16  1  0  0  0  0
  7  8  2  0  0  0  0
  8 17  1  0  0  0  0
  3  4  2  0  0  0  0
 17 18  1  0  0  0  0
  8  9  1  0  0  0  0
 18 19  1  0  0  0  0
  4 13  1  0  0  0  0
 18 20  2  0  0  0  0
  9 10  2  0  0  0  0
 19 21  1  0  0  0  0
 10  5  1  0  0  0  0
 21 22  2  0  0  0  0
  4  5  1  0  0  0  0
 22 23  1  0  0  0  0
 12 13  2  0  0  0  0
 23 24  2  0  0  0  0
  1  2  2  0  0  0  0
 24 25  1  0  0  0  0
 12  1  1  0  0  0  0
 25 26  2  0  0  0  0
 26 21  1  0  0  0  0
  5  6  2  0  0  0  0
 25 27  1  0  0  0  0
  2  3  1  0  0  0  0
 24 28  1  0  0  0  0
  6  7  1  0  0  0  0
 28 29  1  0  0  0  0
M  END
> <Value>
5.899998417198648

> <Relation>
<

> <SourceURI>
mol:CHEMBL272453

$$$$

Generated by Molecular Materials Informatics

 26 28  0  0  0  0  0  0  0  0999 V2000
    3.1177    0.6750    0.0000 O   0  0  0  0  0  0  0  0  0  0  0  0
    8.3137    6.6748    0.0000 O   0  0  0  0  0  0  0  0  0  0  0  0
    5.7158    0.6750    0.0000 N   0  0  0  0  0  0  0  0  0  0  0  0
    4.4167   -9.0747    0.0000 N   0  0  0  0  0  0  0  0  0  0  0  0
    4.4167   -4.5749    0.0000 C   0  0  0  0  0  0  0  0  0  0  0  0
    4.4167   -6.0748    0.0000 C   0  0  0  0  0  0  0  0  0  0  0  0
    4.4167   -1.5750    0.0000 C   0  0  0  0  0  0  0  0  0  0  0  0
    4.4167   -0.0750    0.0000 C   0  0  0  0  0  0  0  0  0  0  0  0
    3.1177   -6.8248    0.0000 C   0  0  0  0  0  0  0  0  0  0  0  0
    7.0147    2.9249    0.0000 C   0  0  0  0  0  0  0  0  0  0  0  0
    3.1177   -3.8249    0.0000 C   0  0  0  0  0  0  0  0  0  0  0  0
    5.7158   -3.8249    0.0000 C   0  0  0  0  0  0  0  0  0  0  0  0
    5.7158    2.1749    0.0000 C   0  0  0  0  0  0  0  0  0  0  0  0
    3.1177   -2.3250    0.0000 C   0  0  0  0  0  0  0  0  0  0  0  0
    5.7158   -2.3250    0.0000 C   0  0  0  0  0  0  0  0  0  0  0  0
    5.7158   -6.8248    0.0000 C   0  0  0  0  0  0  0  0  0  0  0  0
    7.0147    4.4248    0.0000 C   0  0  0  0  0  0  0  0  0  0  0  0
    8.3137    5.1748    0.0000 C   0  0  0  0  0  0  0  0  0  0  0  0
    3.1177   -8.3248    0.0000 C   0  0  0  0  0  0  0  0  0  0  0  0
    8.3137    2.1749    0.0000 C   0  0  0  0  0  0  0  0  0  0  0  0
    5.7158   -8.3248    0.0000 C   0  0  0  0  0  0  0  0  0  0  0  0
    9.6128    4.4248    0.0000 C   0  0  0  0  0  0  0  0  0  0  0  0
    9.6128    2.9249    0.0000 C   0  0  0  0  0  0  0  0  0  0  0  0
    1.8188   -6.0748    0.0000 C   0  0  0  0  0  0  0  0  0  0  0  0
    4.4167    2.9249    0.0000 C   0  0  0  0  0  0  0  0  0  0  0  0
    7.0147    7.4248    0.0000 C   0  0  0  0  0  0  0  0  0  0  0  0
  1  8  2  0  0  0  0
  2 18  1  0  0  0  0
  2 26  1  0  0  0  0
  3  8  1  0  0  0  0
  3 13  1  0  0  0  0
  4 19  1  0  0  0  0
  4 21  2  0  0  0  0
  5  6  1  0  0  0  0
  5 11  2  0  0  0  0
  5 12  1  0  0  0  0
  6  9  1  0  0  0  0
  6 16  2  0  0  0  0
  7  8  1  0  0  0  0
  7 14  2  0  0  0  0
  7 15  1  0  0  0  0
  9 19  2  0  0  0  0
  9 24  1  0  0  0  0
 10 13  1  0  0  0  0
 10 17  2  0  0  0  0
 10 20  1  0  0  0  0
 11 14  1  0  0  0  0
 12 15  2  0  0  0  0
 13 25  1  0  0  0  0
 16 21  1  0  0  0  0
 17 18  1  0  0  0  0
 18 22  2  0  0  0  0
 20 23  2  0  0  0  0
 22 23  1  0  0  0  0
M  END
> <Value>
5.899998417198648

> <Relation>
<

> <SourceURI>
mol:CHEMBL1970217

$$$$

Generated by Molecular Materials Informatics

 17 19  0  0  0  0  0  0  0  0999 V2000
    9.1327   -0.6850    0.0000 Cl  0  0  0  0  0  0  0  0  0  0  0  0
    4.8819   -3.3452    0.0000 O   0  0  0  0  0  0  0  0  0  0  0  0
    3.4812    1.2923    0.0000 N   0  0  0  0  0  0  0  0  0  0  0  0
    2.7312   -1.9937    0.0000 N   0  0  0  0  0  0  0  0  0  0  0  0
    5.9321    1.6618    0.0000 N   0  0  0  0  0  0  0  0  0  0  0  0
    7.3656    1.2196    0.0000 N   0  0  0  0  0  0  0  0  0  0  0  0
    5.1663   -0.8210    0.0000 C   0  0  0  0  0  0  0  0  0  0  0  0
    4.8327    0.6414    0.0000 C   0  0  0  0  0  0  0  0  0  0  0  0
    4.2312   -1.9937    0.0000 C   0  0  0  0  0  0  0  0  0  0  0  0
    2.1297    0.6414    0.0000 C   0  0  0  0  0  0  0  0  0  0  0  0
    1.7959   -0.8210    0.0000 C   0  0  0  0  0  0  0  0  0  0  0  0
    6.5998   -1.2632    0.0000 C   0  0  0  0  0  0  0  0  0  0  0  0
    7.6994   -0.2428    0.0000 C   0  0  0  0  0  0  0  0  0  0  0  0
    1.0301    1.6618    0.0000 C   0  0  0  0  0  0  0  0  0  0  0  0
    0.3624   -1.2632    0.0000 C   0  0  0  0  0  0  0  0  0  0  0  0
   -0.4032    1.2196    0.0000 C   0  0  0  0  0  0  0  0  0  0  0  0
   -0.7370   -0.2428    0.0000 C   0  0  0  0  0  0  0  0  0  0  0  0
  1 13  1  0  0  0  0
  2  9  2  0  0  0  0
  3  8  1  0  0  0  0
  3 10  1  0  0  0  0
  4  9  1  0  0  0  0
  4 11  1  0  0  0  0
  5  6  2  0  0  0  0
  5  8  1  0  0  0  0
  6 13  1  0  0  0  0
  7  8  2  0  0  0  0
  7  9  1  0  0  0  0
  7 12  1  0  0  0  0
 10 11  1  0  0  0  0
 10 14  2  0  0  0  0
 11 15  2  0  0  0  0
 12 13  2  0  0  0  0
 14 16  1  0  0  0  0
 15 17  1  0  0  0  0
 16 17  2  0  0  0  0
M  END
> <Value>
5.899998417198648

> <Relation>
<

> <SourceURI>
mol:CHEMBL1968850

$$$$

Generated by Molecular Materials Informatics

 19 21  0  0  0  0  0  0  0  0999 V2000
    6.0860   -2.6213    0.0000 O   0  0  0  0  0  0  0  0  0  0  0  0
   -2.7504    2.1495    0.0000 O   0  0  0  0  0  0  0  0  0  0  0  0
   -0.8196    3.8879    0.0000 O   0  0  0  0  0  0  0  0  0  0  0  0
    2.9415   -1.7646    0.0000 N   0  0  0  0  0  0  0  0  0  0  0  0
    6.6262   -0.0800    0.0000 N   0  0  0  0  0  0  0  0  0  0  0  0
    2.1915    0.5437    0.0000 C   0  0  0  0  0  0  0  0  0  0  0  0
    3.6916    0.5437    0.0000 C   0  0  0  0  0  0  0  0  0  0  0  0
    4.1552   -0.8829    0.0000 C   0  0  0  0  0  0  0  0  0  0  0  0
    1.7281   -0.8829    0.0000 C   0  0  0  0  0  0  0  0  0  0  0  0
    1.1879    1.6584    0.0000 C   0  0  0  0  0  0  0  0  0  0  0  0
    5.6225   -1.1947    0.0000 C   0  0  0  0  0  0  0  0  0  0  0  0
   -0.2794    1.3466    0.0000 C   0  0  0  0  0  0  0  0  0  0  0  0
    4.6954    1.6584    0.0000 C   0  0  0  0  0  0  0  0  0  0  0  0
    0.2608   -1.1947    0.0000 C   0  0  0  0  0  0  0  0  0  0  0  0
   -0.7429   -0.0800    0.0000 C   0  0  0  0  0  0  0  0  0  0  0  0
   -1.2831    2.4613    0.0000 C   0  0  0  0  0  0  0  0  0  0  0  0
    6.1625    1.3466    0.0000 C   0  0  0  0  0  0  0  0  0  0  0  0
   -3.7541    3.2643    0.0000 C   0  0  0  0  0  0  0  0  0  0  0  0
   -5.2214    2.9523    0.0000 C   0  0  0  0  0  0  0  0  0  0  0  0
  1 11  2  0  0  0  0
  2 16  1  0  0  0  0
  2 18  1  0  0  0  0
  3 16  2  0  0  0  0
  4  8  1  0  0  0  0
  4  9  1  0  0  0  0
  5 11  1  0  0  0  0
  5 17  1  0  0  0  0
  6  7  1  0  0  0  0
  6  9  1  0  0  0  0
  6 10  2  0  0  0  0
  7  8  2  0  0  0  0
  7 13  1  0  0  0  0
  8 11  1  0  0  0  0
  9 14  2  0  0  0  0
 10 12  1  0  0  0  0
 12 15  2  0  0  0  0
 12 16  1  0  0  0  0
 13 17  1  0  0  0  0
 14 15  1  0  0  0  0
 18 19  1  0  0  0  0
M  END
> <Value>
6.299997602857746

> <Relation>
=

> <SourceURI>
mol:CHEMBL2005528

$$$$

Generated by Molecular Materials Informatics

 18 20  0  0  0  0  0  0  0  0999 V2000
    4.9039   -1.3125    0.0000 Br  0  0  0  0  0  0  0  0  0  0  0  0
   -1.5914    0.9375    0.0000 N   0  0  0  0  0  0  0  0  0  0  0  0
   -2.8903   -1.3125    0.0000 N   0  0  0  0  0  0  0  0  0  0  0  0
   -4.1894   -3.5625    0.0000 N   0  0  0  0  0  0  0  0  0  0  0  0
   -2.8903   -5.8125    0.0000 N   0  0  0  0  0  0  0  0  0  0  0  0
    1.0068   -0.5625    0.0000 C   0  0  0  0  0  0  0  0  0  0  0  0
    1.0068    0.9375    0.0000 C   0  0  0  0  0  0  0  0  0  0  0  0
   -1.5914   -0.5625    0.0000 C   0  0  0  0  0  0  0  0  0  0  0  0
   -0.2923   -1.3125    0.0000 C   0  0  0  0  0  0  0  0  0  0  0  0
   -0.2923    1.6875    0.0000 C   0  0  0  0  0  0  0  0  0  0  0  0
    2.3057   -1.3125    0.0000 C   0  0  0  0  0  0  0  0  0  0  0  0
   -2.8903   -2.8125    0.0000 C   0  0  0  0  0  0  0  0  0  0  0  0
    2.3057    1.6875    0.0000 C   0  0  0  0  0  0  0  0  0  0  0  0
    3.6048   -0.5625    0.0000 C   0  0  0  0  0  0  0  0  0  0  0  0
    3.6048    0.9375    0.0000 C   0  0  0  0  0  0  0  0  0  0  0  0
   -1.5914   -3.5625    0.0000 C   0  0  0  0  0  0  0  0  0  0  0  0
   -4.1894   -5.0625    0.0000 C   0  0  0  0  0  0  0  0  0  0  0  0
   -1.5914   -5.0625    0.0000 C   0  0  0  0  0  0  0  0  0  0  0  0
  1 14  1  0  0  0  0
  2  8  1  0  0  0  0
  2 10  2  0  0  0  0
  3  8  1  0  0  0  0
  3 12  1  0  0  0  0
  4 12  1  0  0  0  0
  4 17  2  0  0  0  0
  5 17  1  0  0  0  0
  5 18  2  0  0  0  0
  6  7  1  0  0  0  0
  6  9  1  0  0  0  0
  6 11  2  0  0  0  0
  7 10  1  0  0  0  0
  7 13  2  0  0  0  0
  8  9  2  0  0  0  0
 11 14  1  0  0  0  0
 12 16  2  0  0  0  0
 13 15  1  0  0  0  0
 14 15  2  0  0  0  0
 16 18  1  0  0  0  0
M  END
> <Value>
5.300000202445418

> <Relation>
<

> <SourceURI>
mol:CHEMBL1984686

$$$$

Generated by Molecular Materials Informatics

 23 25  0  0  0  0  0  0  0  0999 V2000
   -2.9429   -4.2411    0.0000 O   0  0  0  0  0  0  0  0  0  0  0  0
    1.3939   -1.7579    0.0000 N   0  0  0  0  0  0  0  0  0  0  0  0
    1.4794    1.3737    0.0000 N   0  0  0  0  0  0  0  0  0  0  0  0
    0.1805    3.6237    0.0000 N   0  0  0  0  0  0  0  0  0  0  0  0
   -0.8411   -5.7683    0.0000 N   0  0  0  0  0  0  0  0  0  0  0  0
    2.7784    3.6237    0.0000 N   0  0  0  0  0  0  0  0  0  0  0  0
    0.9305   -3.1844    0.0000 C   0  0  0  0  0  0  0  0  0  0  0  0
   -0.5695   -3.1844    0.0000 C   0  0  0  0  0  0  0  0  0  0  0  0
    0.1805   -0.8762    0.0000 C   0  0  0  0  0  0  0  0  0  0  0  0
    1.8121   -4.3980    0.0000 C   0  0  0  0  0  0  0  0  0  0  0  0
   -1.0331   -1.7579    0.0000 C   0  0  0  0  0  0  0  0  0  0  0  0
    0.1805    0.6237    0.0000 C   0  0  0  0  0  0  0  0  0  0  0  0
    3.3039   -4.2411    0.0000 C   0  0  0  0  0  0  0  0  0  0  0  0
   -1.4513   -4.3980    0.0000 C   0  0  0  0  0  0  0  0  0  0  0  0
    1.2019   -5.7683    0.0000 C   0  0  0  0  0  0  0  0  0  0  0  0
    4.1855   -5.4547    0.0000 C   0  0  0  0  0  0  0  0  0  0  0  0
   -1.1186    1.3737    0.0000 C   0  0  0  0  0  0  0  0  0  0  0  0
    1.4794    2.8737    0.0000 C   0  0  0  0  0  0  0  0  0  0  0  0
    2.0837   -6.9818    0.0000 C   0  0  0  0  0  0  0  0  0  0  0  0
    3.5753   -6.8251    0.0000 C   0  0  0  0  0  0  0  0  0  0  0  0
   -1.1186    2.8737    0.0000 C   0  0  0  0  0  0  0  0  0  0  0  0
    3.9139   -2.8709    0.0000 C   0  0  0  0  0  0  0  0  0  0  0  0
    5.6773   -5.2980    0.0000 C   0  0  0  0  0  0  0  0  0  0  0  0
  1 14  2  0  0  0  0
  2  7  1  0  0  0  0
  2  9  1  0  0  0  0
  3 12  1  0  0  0  0
  3 18  2  0  0  0  0
  4 18  1  0  0  0  0
  4 21  2  0  0  0  0
  5 14  1  0  0  0  0
  6 18  1  0  0  0  0
  7  8  2  0  0  0  0
  7 10  1  0  0  0  0
  8 11  1  0  0  0  0
  8 14  1  0  0  0  0
  9 11  2  0  0  0  0
  9 12  1  0  0  0  0
 10 13  2  0  0  0  0
 10 15  1  0  0  0  0
 12 17  2  0  0  0  0
 13 16  1  0  0  0  0
 13 22  1  0  0  0  0
 15 19  2  0  0  0  0
 16 20  2  0  0  0  0
 16 23  1  0  0  0  0
 17 21  1  0  0  0  0
 19 20  1  0  0  0  0
M  END
> <Value>
6.299997602857746

> <Relation>
=

> <SourceURI>
mol:CHEMBL1964290

$$$$

Generated by Molecular Materials Informatics

 26 28  0  0  0  0  0  0  0  0999 V2000
    0.4135   -3.2369    0.0000 O   0  0  0  0  0  0  0  0  0  0  0  0
    8.2077    2.7631    0.0000 O   0  0  0  0  0  0  0  0  0  0  0  0
   -2.3121    0.9766    0.0000 N   0  0  0  0  0  0  0  0  0  0  0  0
   -3.1937   -0.2369    0.0000 N   0  0  0  0  0  0  0  0  0  0  0  0
   -2.7755   -2.8770    0.0000 N   0  0  0  0  0  0  0  0  0  0  0  0
    6.9086    5.0131    0.0000 N   0  0  0  0  0  0  0  0  0  0  0  0
   -0.8855   -0.9869    0.0000 C   0  0  0  0  0  0  0  0  0  0  0  0
   -0.8855    0.5131    0.0000 C   0  0  0  0  0  0  0  0  0  0  0  0
    0.4135   -1.7369    0.0000 C   0  0  0  0  0  0  0  0  0  0  0  0
    1.7126    0.5131    0.0000 C   0  0  0  0  0  0  0  0  0  0  0  0
   -2.3121   -1.4505    0.0000 C   0  0  0  0  0  0  0  0  0  0  0  0
    0.4135    1.2631    0.0000 C   0  0  0  0  0  0  0  0  0  0  0  0
    1.7126   -0.9869    0.0000 C   0  0  0  0  0  0  0  0  0  0  0  0
    3.0115    1.2631    0.0000 C   0  0  0  0  0  0  0  0  0  0  0  0
    3.0115    2.7631    0.0000 C   0  0  0  0  0  0  0  0  0  0  0  0
    4.3106    0.5131    0.0000 C   0  0  0  0  0  0  0  0  0  0  0  0
    5.6097    2.7631    0.0000 C   0  0  0  0  0  0  0  0  0  0  0  0
    4.3106    3.5131    0.0000 C   0  0  0  0  0  0  0  0  0  0  0  0
    5.6097    1.2631    0.0000 C   0  0  0  0  0  0  0  0  0  0  0  0
    1.7126   -3.9869    0.0000 C   0  0  0  0  0  0  0  0  0  0  0  0
    6.9086    3.5131    0.0000 C   0  0  0  0  0  0  0  0  0  0  0  0
    1.7126   -5.4869    0.0000 C   0  0  0  0  0  0  0  0  0  0  0  0
    3.0115   -6.2369    0.0000 C   0  0  0  0  0  0  0  0  0  0  0  0
    4.3106   -6.9869    0.0000 C   0  0  0  0  0  0  0  0  0  0  0  0
    2.2615   -7.5359    0.0000 C   0  0  0  0  0  0  0  0  0  0  0  0
    3.7615   -4.9379    0.0000 C   0  0  0  0  0  0  0  0  0  0  0  0
  1  9  1  0  0  0  0
  1 20  1  0  0  0  0
  2 21  2  0  0  0  0
  3  4  1  0  0  0  0
  3  8  1  0  0  0  0
  4 11  2  0  0  0  0
  5 11  1  0  0  0  0
  6 21  1  0  0  0  0
  7  8  2  0  0  0  0
  7  9  1  0  0  0  0
  7 11  1  0  0  0  0
  8 12  1  0  0  0  0
  9 13  2  0  0  0  0
 10 12  2  0  0  0  0
 10 13  1  0  0  0  0
 10 14  1  0  0  0  0
 14 15  2  0  0  0  0
 14 16  1  0  0  0  0
 15 18  1  0  0  0  0
 16 19  2  0  0  0  0
 17 18  2  0  0  0  0
 17 19  1  0  0  0  0
 17 21  1  0  0  0  0
 20 22  1  0  0  0  0
 22 23  1  0  0  0  0
 23 24  1  0  0  0  0
 23 25  1  0  0  0  0
 23 26  1  0  0  0  0
M  END
> <Value>
5.300000202445418

> <Relation>
<

> <SourceURI>
mol:CHEMBL2001398

$$$$

Generated by Molecular Materials Informatics

 30 33  0  0  0  0  0  0  0  0999 V2000
    5.4515  -19.0985    0.0000 N   0  0  0  0  0  0  0  0  0  0  0  0
    5.4495  -20.6023    0.0000 C   0  0  0  0  0  0  0  0  0  0  0  0
    6.7491  -21.3495    0.0000 N   0  0  0  0  0  0  0  0  0  0  0  0
    6.7462  -18.3444    0.0000 C   0  0  0  0  0  0  0  0  0  0  0  0
    6.7419  -16.8444    0.0000 N   0  0  0  0  0  0  0  0  0  0  0  0
    8.0468  -19.0921    0.0000 C   0  0  0  0  0  0  0  0  0  0  0  0
    8.0470  -20.5941    0.0000 C   0  0  0  0  0  0  0  0  0  0  0  0
    9.4757  -21.0561    0.0000 O   0  0  0  0  0  0  0  0  0  0  0  0
   10.3616  -19.8393    0.0000 N   0  0  0  0  0  0  0  0  0  0  0  0
    9.4757  -18.6231    0.0000 C   0  0  0  0  0  0  0  0  0  0  0  0
    9.9369  -17.1962    0.0000 C   0  0  0  0  0  0  0  0  0  0  0  0
   11.4015  -16.8957    0.0000 C   0  0  0  0  0  0  0  0  0  0  0  0
   11.8700  -15.4702    0.0000 C   0  0  0  0  0  0  0  0  0  0  0  0
   10.8632  -14.3522    0.0000 C   0  0  0  0  0  0  0  0  0  0  0  0
    9.3892  -14.6760    0.0000 C   0  0  0  0  0  0  0  0  0  0  0  0
    8.9347  -16.0940    0.0000 C   0  0  0  0  0  0  0  0  0  0  0  0
   11.3226  -12.9244    0.0000 N   0  0  0  0  0  0  0  0  0  0  0  0
   12.7895  -12.6118    0.0000 C   0  0  0  0  0  0  0  0  0  0  0  0
   13.2558  -11.1844    0.0000 N   0  0  0  0  0  0  0  0  0  0  0  0
   13.7972  -13.7272    0.0000 O   0  0  0  0  0  0  0  0  0  0  0  0
   14.7227  -10.8719    0.0000 C   0  0  0  0  0  0  0  0  0  0  0  0
   15.7158  -11.9879    0.0000 C   0  0  0  0  0  0  0  0  0  0  0  0
   17.1817  -11.6761    0.0000 C   0  0  0  0  0  0  0  0  0  0  0  0
   17.6491  -10.2474    0.0000 C   0  0  0  0  0  0  0  0  0  0  0  0
   16.6328   -9.1299    0.0000 C   0  0  0  0  0  0  0  0  0  0  0  0
   15.1708   -9.4472    0.0000 C   0  0  0  0  0  0  0  0  0  0  0  0
   18.1886  -12.7847    0.0000 C   0  0  0  0  0  0  0  0  0  0  0  0
   19.2427  -13.8379    0.0000 F   0  0  0  0  0  0  0  0  0  0  0  0
   17.0995  -13.8204    0.0000 F   0  0  0  0  0  0  0  0  0  0  0  0
   19.2872  -11.7663    0.0000 F   0  0  0  0  0  0  0  0  0  0  0  0
  3  7  2  0  0  0  0
 14 15  2  0  0  0  0
  1  2  2  0  0  0  0
 15 16  1  0  0  0  0
 16 11  2  0  0  0  0
  6  4  2  0  0  0  0
 14 17  1  0  0  0  0
  4  1  1  0  0  0  0
 17 18  1  0  0  0  0
  7  8  1  0  0  0  0
 18 19  1  0  0  0  0
  8  9  1  0  0  0  0
 18 20  2  0  0  0  0
  9 10  2  0  0  0  0
 19 21  1  0  0  0  0
 10  6  1  0  0  0  0
 21 22  2  0  0  0  0
 22 23  1  0  0  0  0
 10 11  1  0  0  0  0
 23 24  2  0  0  0  0
  4  5  1  0  0  0  0
 24 25  1  0  0  0  0
 11 12  1  0  0  0  0
 25 26  2  0  0  0  0
 26 21  1  0  0  0  0
  6  7  1  0  0  0  0
 23 27  1  0  0  0  0
 12 13  2  0  0  0  0
 27 28  1  0  0  0  0
  2  3  1  0  0  0  0
 27 29  1  0  0  0  0
 13 14  1  0  0  0  0
 27 30  1  0  0  0  0
M  END
> <Value>
5.899998417198648

> <Relation>
<

> <SourceURI>
mol:CHEMBL213505

$$$$

Generated by Molecular Materials Informatics

 38 42  0  0  0  0  0  0  0  0999 V2000
    0.1648   -5.5371    0.0000 C   0  0  0  0  0  0  0  0  0  0  0  0
   -1.1341   -6.2871    0.0000 C   0  0  0  0  0  0  0  0  0  0  0  0
   -1.1341   -7.7871    0.0000 O   0  0  0  0  0  0  0  0  0  0  0  0
    0.1648   -8.5371    0.0000 C   0  0  0  0  0  0  0  0  0  0  0  0
    1.4639   -7.7871    0.0000 C   0  0  0  0  0  0  0  0  0  0  0  0
    1.4639   -6.2871    0.0000 N   0  0  0  0  0  0  0  0  0  0  0  0
    2.7630   -5.5371    0.0000 C   0  0  0  0  0  0  0  0  0  0  0  0
    2.7630   -4.0371    0.0000 C   0  0  0  0  0  0  0  0  0  0  0  0
    4.0620   -3.2871    0.0000 C   0  0  0  0  0  0  0  0  0  0  0  0
    4.0620   -1.7871    0.0000 O   0  0  0  0  0  0  0  0  0  0  0  0
    5.3610   -1.0371    0.0000 C   0  0  0  0  0  0  0  0  0  0  0  0
    6.6600   -1.7871    0.0000 C   0  0  0  0  0  0  0  0  0  0  0  0
    5.3610    0.4629    0.0000 C   0  0  0  0  0  0  0  0  0  0  0  0
    4.0620    1.2128    0.0000 O   0  0  0  0  0  0  0  0  0  0  0  0
    4.0620    2.7128    0.0000 C   0  0  0  0  0  0  0  0  0  0  0  0
    6.6600    1.2128    0.0000 C   0  0  0  0  0  0  0  0  0  0  0  0
    7.9591    0.4629    0.0000 C   0  0  0  0  0  0  0  0  0  0  0  0
    7.9591   -1.0371    0.0000 C   0  0  0  0  0  0  0  0  0  0  0  0
    9.2580   -1.7871    0.0000 N   0  0  0  0  0  0  0  0  0  0  0  0
   10.5571   -1.0371    0.0000 C   0  0  0  0  0  0  0  0  0  0  0  0
   10.5571    0.4629    0.0000 N   0  0  0  0  0  0  0  0  0  0  0  0
    9.2580    1.2128    0.0000 C   0  0  0  0  0  0  0  0  0  0  0  0
    9.2580    2.7128    0.0000 N   0  0  0  0  0  0  0  0  0  0  0  0
    7.9591    3.4628    0.0000 C   0  0  0  0  0  0  0  0  0  0  0  0
    7.9591    4.9628    0.0000 C   0  0  0  0  0  0  0  0  0  0  0  0
    6.6600    5.7128    0.0000 C   0  0  0  0  0  0  0  0  0  0  0  0
    6.6600    2.7128    0.0000 C   0  0  0  0  0  0  0  0  0  0  0  0
    5.3610    3.4628    0.0000 C   0  0  0  0  0  0  0  0  0  0  0  0
    5.3610    4.9628    0.0000 C   0  0  0  0  0  0  0  0  0  0  0  0
    4.0620    5.7128    0.0000 N   0  0  0  0  0  0  0  0  0  0  0  0
    4.0620    7.2128    0.0000 C   0  0  0  0  0  0  0  0  0  0  0  0
    2.7630    7.9628    0.0000 O   0  0  0  0  0  0  0  0  0  0  0  0
    5.3610    7.9628    0.0000 C   0  0  0  0  0  0  0  0  0  0  0  0
    6.6600    7.2128    0.0000 C   0  0  0  0  0  0  0  0  0  0  0  0
    7.9591    7.9628    0.0000 C   0  0  0  0  0  0  0  0  0  0  0  0
    7.9591    9.4628    0.0000 C   0  0  0  0  0  0  0  0  0  0  0  0
    6.6600   10.2128    0.0000 C   0  0  0  0  0  0  0  0  0  0  0  0
    5.3610    9.4628    0.0000 C   0  0  0  0  0  0  0  0  0  0  0  0
  2  1  1  0  0  0  0
  1  6  1  0  0  0  0
  2  3  1  0  0  0  0
  4  3  1  0  0  0  0
  4  5  1  0  0  0  0
  5  6  1  0  0  0  0
  7  6  1  0  0  0  0
  8  7  1  0  0  0  0
  8  9  1  0  0  0  0
  9 10  1  0  0  0  0
 11 10  1  0  0  0  0
 12 11  1  0  0  0  0
 13 11  2  0  0  0  0
 18 12  2  0  0  0  0
 13 14  1  0  0  0  0
 16 13  1  0  0  0  0
 15 14  1  0  0  0  0
 17 16  2  0  0  0  0
 18 17  1  0  0  0  0
 17 22  1  0  0  0  0
 18 19  1  0  0  0  0
 20 19  2  0  0  0  0
 20 21  1  0  0  0  0
 22 21  2  0  0  0  0
 22 23  1  0  0  0  0
 24 23  1  0  0  0  0
 25 24  1  0  0  0  0
 27 24  2  0  0  0  0
 26 25  2  0  0  0  0
 26 29  1  0  0  0  0
 28 27  1  0  0  0  0
 28 29  2  0  0  0  0
 29 30  1  0  0  0  0
 31 30  1  0  0  0  0
 31 32  2  0  0  0  0
 31 33  1  0  0  0  0
 34 33  1  0  0  0  0
 38 33  2  0  0  0  0
 35 34  2  0  0  0  0
 36 35  1  0  0  0  0
 36 37  2  0  0  0  0
 37 38  1  0  0  0  0
M  END
> <Value>
5.300000202445418

> <Relation>
<

> <SourceURI>
mol:CHEMBL202721

$$$$

Generated by Molecular Materials Informatics

 28 31  0  0  0  0  0  0  0  0999 V2000
   -3.3034   -7.1058    0.0000 F   0  0  0  0  0  0  0  0  0  0  0  0
   -3.3034   -5.6058    0.0000 C   0  0  0  0  0  0  0  0  0  0  0  0
   -4.6022   -4.8559    0.0000 C   0  0  0  0  0  0  0  0  0  0  0  0
   -4.6022   -3.3559    0.0000 C   0  0  0  0  0  0  0  0  0  0  0  0
   -3.3034   -2.6059    0.0000 C   0  0  0  0  0  0  0  0  0  0  0  0
   -3.3034   -1.1060    0.0000 S   0  0  0  0  0  0  0  0  0  0  0  0
   -2.0043   -0.3560    0.0000 C   0  0  0  0  0  0  0  0  0  0  0  0
   -2.0043    1.1440    0.0000 C   0  0  0  0  0  0  0  0  0  0  0  0
   -0.7053    1.8939    0.0000 C   0  0  0  0  0  0  0  0  0  0  0  0
    0.5936    1.1440    0.0000 C   0  0  0  0  0  0  0  0  0  0  0  0
    1.8926    1.8939    0.0000 C   0  0  0  0  0  0  0  0  0  0  0  0
    1.8926    3.3939    0.0000 C   0  0  0  0  0  0  0  0  0  0  0  0
    0.5936    4.1439    0.0000 C   0  0  0  0  0  0  0  0  0  0  0  0
   -0.7053    3.3939    0.0000 Cl  0  0  0  0  0  0  0  0  0  0  0  0
    0.5936    5.6438    0.0000 C   0  0  0  0  0  0  0  0  0  0  0  0
    1.8926    6.3938    0.0000 C   0  0  0  0  0  0  0  0  0  0  0  0
    3.1917    5.6438    0.0000 C   0  0  0  0  0  0  0  0  0  0  0  0
    3.1917    4.1439    0.0000 C   0  0  0  0  0  0  0  0  0  0  0  0
    4.4907    3.3939    0.0000 Cl  0  0  0  0  0  0  0  0  0  0  0  0
    3.1917    1.1440    0.0000 C   0  0  0  0  0  0  0  0  0  0  0  0
    4.4907    1.8939    0.0000 O   0  0  0  0  0  0  0  0  0  0  0  0
    3.1917   -0.3560    0.0000 N   0  0  0  0  0  0  0  0  0  0  0  0
    1.8926   -1.1060    0.0000 C   0  0  0  0  0  0  0  0  0  0  0  0
    0.5936   -0.3560    0.0000 N   0  0  0  0  0  0  0  0  0  0  0  0
   -0.7053   -1.1060    0.0000 N   0  0  0  0  0  0  0  0  0  0  0  0
   -2.0043   -3.3559    0.0000 C   0  0  0  0  0  0  0  0  0  0  0  0
   -0.7053   -2.6059    0.0000 F   0  0  0  0  0  0  0  0  0  0  0  0
   -2.0043   -4.8559    0.0000 C   0  0  0  0  0  0  0  0  0  0  0  0
  2  1  1  0  0  0  0
  2  3  1  0  0  0  0
  3  4  2  0  0  0  0
  4  5  1  0  0  0  0
  5  6  1  0  0  0  0
  7  6  1  0  0  0  0
  7 25  2  0  0  0  0
  7  8  1  0  0  0  0
  8  9  2  0  0  0  0
 10  9  1  0  0  0  0
 10 11  2  0  0  0  0
 10 24  1  0  0  0  0
 11 20  1  0  0  0  0
 11 12  1  0  0  0  0
 12 13  1  0  0  0  0
 13 14  1  0  0  0  0
 13 15  2  0  0  0  0
 15 16  1  0  0  0  0
 16 17  2  0  0  0  0
 17 18  1  0  0  0  0
 12 18  2  0  0  0  0
 18 19  1  0  0  0  0
 20 21  2  0  0  0  0
 20 22  1  0  0  0  0
 23 22  2  0  0  0  0
 23 24  1  0  0  0  0
 24 25  1  0  0  0  0
 26  5  2  0  0  0  0
 26 28  1  0  0  0  0
 26 27  1  0  0  0  0
  2 28  2  0  0  0  0
M  END
> <Value>
5.499999678657065

> <Relation>
<

> <SourceURI>
mol:CHEMBL119385

$$$$

Generated by Molecular Materials Informatics

 30 33  0  0  0  0  0  0  0  0999 V2000
    9.4125  -11.5108    0.0000 C   0  0  0  0  0  0  0  0  0  0  0  0
    9.4100  -13.0157    0.0000 C   0  0  0  0  0  0  0  0  0  0  0  0
   10.7065  -13.7665    0.0000 C   0  0  0  0  0  0  0  0  0  0  0  0
   12.0144  -13.0147    0.0000 C   0  0  0  0  0  0  0  0  0  0  0  0
   12.0087  -11.5036    0.0000 C   0  0  0  0  0  0  0  0  0  0  0  0
   10.7029  -10.7605    0.0000 C   0  0  0  0  0  0  0  0  0  0  0  0
   10.6960   -9.2603    0.0000 Cl  0  0  0  0  0  0  0  0  0  0  0  0
   10.7040  -15.2667    0.0000 F   0  0  0  0  0  0  0  0  0  0  0  0
   13.3142  -13.7636    0.0000 Cl  0  0  0  0  0  0  0  0  0  0  0  0
   13.3040  -10.7472    0.0000 C   0  0  0  0  0  0  0  0  0  0  0  0
   14.6069  -11.4908    0.0000 O   0  0  0  0  0  0  0  0  0  0  0  0
   13.2965   -9.2472    0.0000 C   0  0  0  0  0  0  0  0  0  0  0  0
   15.9023  -10.7343    0.0000 C   0  0  0  0  0  0  0  0  0  0  0  0
   17.2040  -11.4867    0.0000 C   0  0  0  0  0  0  0  0  0  0  0  0
   18.4983  -10.7314    0.0000 N   0  0  0  0  0  0  0  0  0  0  0  0
   18.4918   -9.2298    0.0000 C   0  0  0  0  0  0  0  0  0  0  0  0
   17.1800   -8.4865    0.0000 C   0  0  0  0  0  0  0  0  0  0  0  0
   15.8909   -9.2459    0.0000 C   0  0  0  0  0  0  0  0  0  0  0  0
   17.2071  -12.9867    0.0000 N   0  0  0  0  0  0  0  0  0  0  0  0
   17.1654   -6.9870    0.0000 C   0  0  0  0  0  0  0  0  0  0  0  0
   18.3714   -6.0950    0.0000 C   0  0  0  0  0  0  0  0  0  0  0  0
   17.8945   -4.6738    0.0000 N   0  0  0  0  0  0  0  0  0  0  0  0
   16.3956   -4.6850    0.0000 N   0  0  0  0  0  0  0  0  0  0  0  0
   15.9445   -6.1158    0.0000 C   0  0  0  0  0  0  0  0  0  0  0  0
   19.1180   -3.8098    0.0000 C   0  0  0  0  0  0  0  0  0  0  0  0
   20.4269   -4.5278    0.0000 C   0  0  0  0  0  0  0  0  0  0  0  0
   21.7007   -3.7514    0.0000 C   0  0  0  0  0  0  0  0  0  0  0  0
   21.6692   -2.2527    0.0000 N   0  0  0  0  0  0  0  0  0  0  0  0
   20.3527   -1.5339    0.0000 C   0  0  0  0  0  0  0  0  0  0  0  0
   19.0676   -2.3134    0.0000 C   0  0  0  0  0  0  0  0  0  0  0  0
 14 15  1  0  0  0  0
  3  4  2  0  0  0  0
 15 16  2  0  0  0  0
  3  8  1  0  0  0  0
 16 17  1  0  0  0  0
 17 18  2  0  0  0  0
 18 13  1  0  0  0  0
  4  9  1  0  0  0  0
 14 19  1  0  0  0  0
 20 21  2  0  0  0  0
  4  5  1  0  0  0  0
  5 10  1  0  0  0  0
  2  3  1  0  0  0  0
 10 11  1  0  0  0  0
  5  6  2  0  0  0  0
 21 22  1  0  0  0  0
 22 23  1  0  0  0  0
 23 24  2  0  0  0  0
 24 20  1  0  0  0  0
 17 20  1  0  0  0  0
 10 12  1  0  0  0  0
 22 25  1  0  0  0  0
 25 26  1  0  0  0  0
  6  1  1  0  0  0  0
 11 13  1  0  0  0  0
  1  2  2  0  0  0  0
 13 14  2  0  0  0  0
  6  7  1  0  0  0  0
 25 30  1  0  0  0  0
 26 27  1  0  0  0  0
 27 28  1  0  0  0  0
 28 29  1  0  0  0  0
 29 30  1  0  0  0  0
M  END
> <Value>
5.300000202445418

> <Relation>
<

> <SourceURI>
mol:CHEMBL1825138

$$$$

Generated by Molecular Materials Informatics

 29 31  0  0  0  0  0  0  0  0999 V2000
    2.1886   -4.5563    0.0000 Br  0  0  0  0  0  0  0  0  0  0  0  0
   -0.4094    5.9437    0.0000 S   0  0  0  0  0  0  0  0  0  0  0  0
   -0.4094    7.4437    0.0000 O   0  0  0  0  0  0  0  0  0  0  0  0
   -1.9094    5.9437    0.0000 O   0  0  0  0  0  0  0  0  0  0  0  0
    4.7868   -9.0562    0.0000 O   0  0  0  0  0  0  0  0  0  0  0  0
    3.4877   -0.8062    0.0000 N   0  0  0  0  0  0  0  0  0  0  0  0
    2.1886    1.4437    0.0000 N   0  0  0  0  0  0  0  0  0  0  0  0
    4.7868   -3.0563    0.0000 N   0  0  0  0  0  0  0  0  0  0  0  0
    0.8895   -0.8062    0.0000 N   0  0  0  0  0  0  0  0  0  0  0  0
    1.0906    5.9437    0.0000 N   0  0  0  0  0  0  0  0  0  0  0  0
    3.4877  -12.8062    0.0000 N   0  0  0  0  0  0  0  0  0  0  0  0
    3.4877   -2.3062    0.0000 C   0  0  0  0  0  0  0  0  0  0  0  0
   -0.4094    4.4437    0.0000 C   0  0  0  0  0  0  0  0  0  0  0  0
    2.1886   -0.0562    0.0000 C   0  0  0  0  0  0  0  0  0  0  0  0
    0.8895    2.1937    0.0000 C   0  0  0  0  0  0  0  0  0  0  0  0
    2.1886   -3.0563    0.0000 C   0  0  0  0  0  0  0  0  0  0  0  0
    0.8895    3.6937    0.0000 C   0  0  0  0  0  0  0  0  0  0  0  0
    4.7868   -4.5563    0.0000 C   0  0  0  0  0  0  0  0  0  0  0  0
    0.8895   -2.3062    0.0000 C   0  0  0  0  0  0  0  0  0  0  0  0
   -1.7085    3.6937    0.0000 C   0  0  0  0  0  0  0  0  0  0  0  0
   -0.4094    1.4437    0.0000 C   0  0  0  0  0  0  0  0  0  0  0  0
   -1.7085    2.1937    0.0000 C   0  0  0  0  0  0  0  0  0  0  0  0
    6.0857   -5.3062    0.0000 C   0  0  0  0  0  0  0  0  0  0  0  0
    3.4877   -5.3062    0.0000 C   0  0  0  0  0  0  0  0  0  0  0  0
    4.7868   -7.5563    0.0000 C   0  0  0  0  0  0  0  0  0  0  0  0
    6.0857   -6.8062    0.0000 C   0  0  0  0  0  0  0  0  0  0  0  0
    3.4877   -6.8062    0.0000 C   0  0  0  0  0  0  0  0  0  0  0  0
    3.4877   -9.8062    0.0000 C   0  0  0  0  0  0  0  0  0  0  0  0
    3.4877  -11.3062    0.0000 C   0  0  0  0  0  0  0  0  0  0  0  0
  1 16  1  0  0  0  0
  2  3  2  0  0  0  0
  2  4  2  0  0  0  0
  2 10  1  0  0  0  0
  2 13  1  0  0  0  0
  5 25  1  0  0  0  0
  5 28  1  0  0  0  0
  6 12  2  0  0  0  0
  6 14  1  0  0  0  0
  7 14  1  0  0  0  0
  7 15  1  0  0  0  0
  8 12  1  0  0  0  0
  8 18  1  0  0  0  0
  9 14  2  0  0  0  0
  9 19  1  0  0  0  0
 11 29  3  0  0  0  0
 12 16  1  0  0  0  0
 13 17  1  0  0  0  0
 13 20  2  0  0  0  0
 15 17  2  0  0  0  0
 15 21  1  0  0  0  0
 16 19  2  0  0  0  0
 18 23  2  0  0  0  0
 18 24  1  0  0  0  0
 20 22  1  0  0  0  0
 21 22  2  0  0  0  0
 23 26  1  0  0  0  0
 24 27  2  0  0  0  0
 25 26  2  0  0  0  0
 25 27  1  0  0  0  0
 28 29  1  0  0  0  0
M  END
> <Value>
7.50003813440381

> <Relation>
=

> <SourceURI>
mol:CHEMBL1987034

$$$$

Generated by Molecular Materials Informatics

 35 39  0  0  0  0  0  0  0  0999 V2000
    0.7929    3.4182    0.0000 S   0  0  0  0  0  0  0  0  0  0  0  0
   -6.8535   -9.9306    0.0000 F   0  0  0  0  0  0  0  0  0  0  0  0
   -3.5322   -3.9124    0.0000 O   0  0  0  0  0  0  0  0  0  0  0  0
    4.8176    1.4545    0.0000 N   0  0  0  0  0  0  0  0  0  0  0  0
    2.7685    7.5129    0.0000 N   0  0  0  0  0  0  0  0  0  0  0  0
    3.5186   -0.7955    0.0000 N   0  0  0  0  0  0  0  0  0  0  0  0
    4.2686    7.5129    0.0000 N   0  0  0  0  0  0  0  0  0  0  0  0
   -1.0613   -4.7153    0.0000 N   0  0  0  0  0  0  0  0  0  0  0  0
   -2.9920   -6.4537    0.0000 N   0  0  0  0  0  0  0  0  0  0  0  0
    2.2195    1.4545    0.0000 C   0  0  0  0  0  0  0  0  0  0  0  0
    2.2195    2.9545    0.0000 C   0  0  0  0  0  0  0  0  0  0  0  0
    0.7929    0.9911    0.0000 C   0  0  0  0  0  0  0  0  0  0  0  0
    3.5186    3.7045    0.0000 C   0  0  0  0  0  0  0  0  0  0  0  0
    3.5186    0.7045    0.0000 C   0  0  0  0  0  0  0  0  0  0  0  0
    3.5186    5.2045    0.0000 C   0  0  0  0  0  0  0  0  0  0  0  0
    0.3295   -0.4355    0.0000 C   0  0  0  0  0  0  0  0  0  0  0  0
   -0.0887    2.2045    0.0000 C   0  0  0  0  0  0  0  0  0  0  0  0
    4.8176    2.9545    0.0000 C   0  0  0  0  0  0  0  0  0  0  0  0
    2.3049    6.0864    0.0000 C   0  0  0  0  0  0  0  0  0  0  0  0
    4.7320    6.0864    0.0000 C   0  0  0  0  0  0  0  0  0  0  0  0
    1.3331   -1.5502    0.0000 C   0  0  0  0  0  0  0  0  0  0  0  0
   -1.1378   -0.7473    0.0000 C   0  0  0  0  0  0  0  0  0  0  0  0
   -0.5976   -3.2887    0.0000 C   0  0  0  0  0  0  0  0  0  0  0  0
    0.8695   -2.9767    0.0000 C   0  0  0  0  0  0  0  0  0  0  0  0
   -1.6015   -2.1740    0.0000 C   0  0  0  0  0  0  0  0  0  0  0  0
    1.8869    8.7264    0.0000 C   0  0  0  0  0  0  0  0  0  0  0  0
   -2.5284   -5.0271    0.0000 C   0  0  0  0  0  0  0  0  0  0  0  0
   -4.4591   -6.7657    0.0000 C   0  0  0  0  0  0  0  0  0  0  0  0
    2.4969   10.0967    0.0000 C   0  0  0  0  0  0  0  0  0  0  0  0
   -4.9227   -8.1922    0.0000 C   0  0  0  0  0  0  0  0  0  0  0  0
   -5.4629   -5.6509    0.0000 C   0  0  0  0  0  0  0  0  0  0  0  0
   -6.3900   -8.5040    0.0000 C   0  0  0  0  0  0  0  0  0  0  0  0
   -6.9302   -5.9628    0.0000 C   0  0  0  0  0  0  0  0  0  0  0  0
   -7.3936   -7.3893    0.0000 C   0  0  0  0  0  0  0  0  0  0  0  0
    1.6153   11.3102    0.0000 C   0  0  0  0  0  0  0  0  0  0  0  0
  1 11  1  0  0  0  0
  1 17  1  0  0  0  0
  2 32  1  0  0  0  0
  3 27  2  0  0  0  0
  4 14  2  0  0  0  0
  4 18  1  0  0  0  0
  5  7  1  0  0  0  0
  5 19  1  0  0  0  0
  5 26  1  0  0  0  0
  6 14  1  0  0  0  0
  7 20  2  0  0  0  0
  8 23  1  0  0  0  0
  8 27  1  0  0  0  0
  9 27  1  0  0  0  0
  9 28  1  0  0  0  0
 10 11  2  0  0  0  0
 10 12  1  0  0  0  0
 10 14  1  0  0  0  0
 11 13  1  0  0  0  0
 12 16  1  0  0  0  0
 12 17  2  0  0  0  0
 13 15  1  0  0  0  0
 13 18  2  0  0  0  0
 15 19  2  0  0  0  0
 15 20  1  0  0  0  0
 16 21  2  0  0  0  0
 16 22  1  0  0  0  0
 21 24  1  0  0  0  0
 22 25  2  0  0  0  0
 23 24  2  0  0  0  0
 23 25  1  0  0  0  0
 26 29  1  0  0  0  0
 28 30  1  0  0  0  0
 28 31  2  0  0  0  0
 29 35  1  0  0  0  0
 30 32  2  0  0  0  0
 31 33  1  0  0  0  0
 32 34  1  0  0  0  0
 33 34  2  0  0  0  0
M  END
> <Value>
5.899998417198648

> <Relation>
<

> <SourceURI>
mol:CHEMBL1993941

$$$$

Generated by Molecular Materials Informatics

 32 36  0  0  0  0  0  0  0  0999 V2000
   -0.5189   -2.4901    0.0000 O   0  0  0  0  0  0  0  0  0  0  0  0
   -0.9058   -7.8844    0.0000 O   0  0  0  0  0  0  0  0  0  0  0  0
   -2.5263    2.1665    0.0000 N   0  0  0  0  0  0  0  0  0  0  0  0
   -3.4080    0.9530    0.0000 N   0  0  0  0  0  0  0  0  0  0  0  0
   -2.9898   -1.6872    0.0000 N   0  0  0  0  0  0  0  0  0  0  0  0
    5.1713   -1.0517    0.0000 N   0  0  0  0  0  0  0  0  0  0  0  0
    2.9542   -2.0388    0.0000 N   0  0  0  0  0  0  0  0  0  0  0  0
    4.4213   -2.3508    0.0000 N   0  0  0  0  0  0  0  0  0  0  0  0
   -1.0998    0.2030    0.0000 C   0  0  0  0  0  0  0  0  0  0  0  0
   -1.0998    1.7030    0.0000 C   0  0  0  0  0  0  0  0  0  0  0  0
   -2.5263   -0.2606    0.0000 C   0  0  0  0  0  0  0  0  0  0  0  0
    1.4984    0.2030    0.0000 C   0  0  0  0  0  0  0  0  0  0  0  0
    0.1993   -0.5470    0.0000 C   0  0  0  0  0  0  0  0  0  0  0  0
    2.7973   -0.5470    0.0000 C   0  0  0  0  0  0  0  0  0  0  0  0
    0.1993    2.4530    0.0000 C   0  0  0  0  0  0  0  0  0  0  0  0
    1.4984    1.7030    0.0000 C   0  0  0  0  0  0  0  0  0  0  0  0
    4.1677    0.0630    0.0000 C   0  0  0  0  0  0  0  0  0  0  0  0
   -1.9862   -2.8019    0.0000 C   0  0  0  0  0  0  0  0  0  0  0  0
   -2.4498   -4.2284    0.0000 C   0  0  0  0  0  0  0  0  0  0  0  0
    6.6631   -0.8948    0.0000 C   0  0  0  0  0  0  0  0  0  0  0  0
   -1.4460   -5.3432    0.0000 C   0  0  0  0  0  0  0  0  0  0  0  0
   -3.9169   -4.5402    0.0000 C   0  0  0  0  0  0  0  0  0  0  0  0
    7.5448   -2.1084    0.0000 C   0  0  0  0  0  0  0  0  0  0  0  0
   -1.9096   -6.7697    0.0000 C   0  0  0  0  0  0  0  0  0  0  0  0
   -4.3805   -5.9670    0.0000 C   0  0  0  0  0  0  0  0  0  0  0  0
   -3.3767   -7.0817    0.0000 C   0  0  0  0  0  0  0  0  0  0  0  0
    9.0366   -1.9515    0.0000 C   0  0  0  0  0  0  0  0  0  0  0  0
    6.9348   -3.4788    0.0000 C   0  0  0  0  0  0  0  0  0  0  0  0
    9.9182   -3.1652    0.0000 C   0  0  0  0  0  0  0  0  0  0  0  0
    7.8164   -4.6922    0.0000 C   0  0  0  0  0  0  0  0  0  0  0  0
    9.3082   -4.5355    0.0000 C   0  0  0  0  0  0  0  0  0  0  0  0
    0.5613   -7.5726    0.0000 C   0  0  0  0  0  0  0  0  0  0  0  0
  1 18  2  0  0  0  0
  2 24  1  0  0  0  0
  2 32  1  0  0  0  0
  3  4  1  0  0  0  0
  3 10  1  0  0  0  0
  4 11  2  0  0  0  0
  5 11  1  0  0  0  0
  5 18  1  0  0  0  0
  6  8  1  0  0  0  0
  6 17  1  0  0  0  0
  6 20  1  0  0  0  0
  7  8  2  0  0  0  0
  7 14  1  0  0  0  0
  9 10  1  0  0  0  0
  9 11  1  0  0  0  0
  9 13  2  0  0  0  0
 10 15  2  0  0  0  0
 12 13  1  0  0  0  0
 12 14  1  0  0  0  0
 12 16  2  0  0  0  0
 14 17  2  0  0  0  0
 15 16  1  0  0  0  0
 18 19  1  0  0  0  0
 19 21  2  0  0  0  0
 19 22  1  0  0  0  0
 20 23  1  0  0  0  0
 21 24  1  0  0  0  0
 22 25  2  0  0  0  0
 23 27  2  0  0  0  0
 23 28  1  0  0  0  0
 24 26  2  0  0  0  0
 25 26  1  0  0  0  0
 27 29  1  0  0  0  0
 28 30  2  0  0  0  0
 29 31  2  0  0  0  0
 30 31  1  0  0  0  0
M  END
> <Value>
7.899974269892137

> <Relation>
=

> <SourceURI>
mol:CHEMBL1980435

$$$$

Generated by Molecular Materials Informatics

 25 26  0  0  0  0  0  0  0  0999 V2000
   18.1592  -12.7795    0.0000 C   0  0  0  0  0  0  0  0  0  0  0  0
   18.1568  -14.2841    0.0000 C   0  0  0  0  0  0  0  0  0  0  0  0
   19.4532  -15.0348    0.0000 N   0  0  0  0  0  0  0  0  0  0  0  0
   20.7610  -14.2833    0.0000 C   0  0  0  0  0  0  0  0  0  0  0  0
   20.7552  -12.7721    0.0000 C   0  0  0  0  0  0  0  0  0  0  0  0
   19.4495  -12.0288    0.0000 C   0  0  0  0  0  0  0  0  0  0  0  0
   19.4423  -10.5290    0.0000 N   0  0  0  0  0  0  0  0  0  0  0  0
   22.0504  -12.0157    0.0000 Cl  0  0  0  0  0  0  0  0  0  0  0  0
   22.0608  -15.0321    0.0000 O   0  0  0  0  0  0  0  0  0  0  0  0
   23.3590  -14.2808    0.0000 C   0  0  0  0  0  0  0  0  0  0  0  0
   24.6588  -15.0297    0.0000 C   0  0  0  0  0  0  0  0  0  0  0  0
   16.8568  -15.0322    0.0000 C   0  0  0  0  0  0  0  0  0  0  0  0
   15.5588  -14.2804    0.0000 N   0  0  0  0  0  0  0  0  0  0  0  0
   14.2586  -15.0284    0.0000 C   0  0  0  0  0  0  0  0  0  0  0  0
   12.9606  -14.2766    0.0000 C   0  0  0  0  0  0  0  0  0  0  0  0
   12.9666  -12.7797    0.0000 C   0  0  0  0  0  0  0  0  0  0  0  0
   11.6701  -12.0279    0.0000 C   0  0  0  0  0  0  0  0  0  0  0  0
   10.3682  -12.7761    0.0000 C   0  0  0  0  0  0  0  0  0  0  0  0
   10.3710  -14.2839    0.0000 C   0  0  0  0  0  0  0  0  0  0  0  0
   11.6683  -15.0288    0.0000 C   0  0  0  0  0  0  0  0  0  0  0  0
   16.8546  -16.5322    0.0000 O   0  0  0  0  0  0  0  0  0  0  0  0
    9.0693  -12.0261    0.0000 S   0  0  0  0  0  0  0  0  0  0  0  0
    7.7619  -11.2711    0.0000 C   0  0  0  0  0  0  0  0  0  0  0  0
    9.8193  -10.7271    0.0000 O   0  0  0  0  0  0  0  0  0  0  0  0
    8.3193  -13.3251    0.0000 O   0  0  0  0  0  0  0  0  0  0  0  0
  6  1  1  0  0  0  0
 12 13  1  0  0  0  0
  1  2  2  0  0  0  0
 13 14  1  0  0  0  0
  6  7  1  0  0  0  0
 14 15  1  0  0  0  0
  3  4  2  0  0  0  0
 15 16  2  0  0  0  0
  5  8  1  0  0  0  0
 16 17  1  0  0  0  0
 17 18  2  0  0  0  0
  4  9  1  0  0  0  0
 18 19  1  0  0  0  0
  4  5  1  0  0  0  0
 19 20  2  0  0  0  0
 20 15  1  0  0  0  0
  9 10  1  0  0  0  0
 12 21  2  0  0  0  0
  2  3  1  0  0  0  0
 18 22  1  0  0  0  0
 10 11  1  0  0  0  0
 22 23  1  0  0  0  0
  5  6  2  0  0  0  0
 22 24  2  0  0  0  0
  2 12  1  0  0  0  0
 22 25  2  0  0  0  0
M  END
> <Value>
5.899998417198648

> <Relation>
<

> <SourceURI>
mol:CHEMBL377383

$$$$

Generated by Molecular Materials Informatics

 34 38  0  0  0  0  0  0  0  0999 V2000
   -3.0967   -9.5957    0.0000 Cl  0  0  0  0  0  0  0  0  0  0  0  0
   -3.0967    3.3946    0.0000 O   0  0  0  0  0  0  0  0  0  0  0  0
    7.2068    3.7966    0.0000 O   0  0  0  0  0  0  0  0  0  0  0  0
   -1.5967   -4.3995    0.0000 O   0  0  0  0  0  0  0  0  0  0  0  0
   -0.7150   -0.4170    0.0000 N   0  0  0  0  0  0  0  0  0  0  0  0
   -0.7150    2.0101    0.0000 N   0  0  0  0  0  0  0  0  0  0  0  0
    4.6086    2.2966    0.0000 N   0  0  0  0  0  0  0  0  0  0  0  0
   -5.3467    2.0955    0.0000 N   0  0  0  0  0  0  0  0  0  0  0  0
   -3.0967   -1.8015    0.0000 N   0  0  0  0  0  0  0  0  0  0  0  0
    0.7115    0.0466    0.0000 C   0  0  0  0  0  0  0  0  0  0  0  0
   -1.5967    0.7966    0.0000 C   0  0  0  0  0  0  0  0  0  0  0  0
    0.7115    1.5466    0.0000 C   0  0  0  0  0  0  0  0  0  0  0  0
   -3.0967    0.7966    0.0000 C   0  0  0  0  0  0  0  0  0  0  0  0
    2.0106   -0.7034    0.0000 C   0  0  0  0  0  0  0  0  0  0  0  0
    3.3097    1.5466    0.0000 C   0  0  0  0  0  0  0  0  0  0  0  0
    2.0106    2.2966    0.0000 C   0  0  0  0  0  0  0  0  0  0  0  0
   -3.8467   -0.5025    0.0000 C   0  0  0  0  0  0  0  0  0  0  0  0
   -3.8467    2.0955    0.0000 C   0  0  0  0  0  0  0  0  0  0  0  0
    3.3097    0.0466    0.0000 C   0  0  0  0  0  0  0  0  0  0  0  0
   -5.3467   -0.5025    0.0000 C   0  0  0  0  0  0  0  0  0  0  0  0
    2.0106   -2.2034    0.0000 C   0  0  0  0  0  0  0  0  0  0  0  0
   -6.0967    0.7966    0.0000 C   0  0  0  0  0  0  0  0  0  0  0  0
    5.9077    1.5466    0.0000 C   0  0  0  0  0  0  0  0  0  0  0  0
    4.6086    3.7966    0.0000 C   0  0  0  0  0  0  0  0  0  0  0  0
   -3.8467   -3.1006    0.0000 C   0  0  0  0  0  0  0  0  0  0  0  0
   -3.0967   -4.3995    0.0000 C   0  0  0  0  0  0  0  0  0  0  0  0
   -3.8467   -5.6986    0.0000 C   0  0  0  0  0  0  0  0  0  0  0  0
    7.2068    2.2966    0.0000 C   0  0  0  0  0  0  0  0  0  0  0  0
    5.9077    4.5466    0.0000 C   0  0  0  0  0  0  0  0  0  0  0  0
   -3.0967   -6.9977    0.0000 C   0  0  0  0  0  0  0  0  0  0  0  0
   -5.3467   -5.6986    0.0000 C   0  0  0  0  0  0  0  0  0  0  0  0
   -3.8467   -8.2966    0.0000 C   0  0  0  0  0  0  0  0  0  0  0  0
   -6.0967   -6.9977    0.0000 C   0  0  0  0  0  0  0  0  0  0  0  0
   -5.3467   -8.2966    0.0000 C   0  0  0  0  0  0  0  0  0  0  0  0
  1 32  1  0  0  0  0
  2 18  2  0  0  0  0
  3 28  1  0  0  0  0
  3 29  1  0  0  0  0
  4 26  1  0  0  0  0
  5 10  1  0  0  0  0
  5 11  2  0  0  0  0
  6 11  1  0  0  0  0
  6 12  1  0  0  0  0
  7 15  1  0  0  0  0
  7 23  1  0  0  0  0
  7 24  1  0  0  0  0
  8 18  1  0  0  0  0
  8 22  1  0  0  0  0
  9 17  1  0  0  0  0
  9 25  1  0  0  0  0
 10 12  2  0  0  0  0
 10 14  1  0  0  0  0
 11 13  1  0  0  0  0
 12 16  1  0  0  0  0
 13 17  2  0  0  0  0
 13 18  1  0  0  0  0
 14 19  2  0  0  0  0
 14 21  1  0  0  0  0
 15 16  2  0  0  0  0
 15 19  1  0  0  0  0
 17 20  1  0  0  0  0
 20 22  2  0  0  0  0
 23 28  1  0  0  0  0
 24 29  1  0  0  0  0
 25 26  1  0  0  0  0
 26 27  1  0  0  0  0
 27 30  1  0  0  0  0
 27 31  2  0  0  0  0
 30 32  2  0  0  0  0
 31 33  1  0  0  0  0
 32 34  1  0  0  0  0
 33 34  2  0  0  0  0
M  END
> <Value>
7.199970640755866

> <Relation>
=

> <SourceURI>
mol:CHEMBL2005886

$$$$

Generated by Molecular Materials Informatics

 29 32  0  0  0  0  0  0  0  0999 V2000
    0.9667  -15.8675    0.0000 C   0  0  0  0  0  0  0  0  0  0  0  0
    0.9647  -17.3718    0.0000 C   0  0  0  0  0  0  0  0  0  0  0  0
    2.2643  -18.1224    0.0000 C   0  0  0  0  0  0  0  0  0  0  0  0
    3.5668  -17.3709    0.0000 C   0  0  0  0  0  0  0  0  0  0  0  0
    2.2610  -15.1170    0.0000 C   0  0  0  0  0  0  0  0  0  0  0  0
    3.5679  -15.8633    0.0000 C   0  0  0  0  0  0  0  0  0  0  0  0
    4.6811  -14.8512    0.0000 N   0  0  0  0  0  0  0  0  0  0  0  0
    4.0630  -13.4790    0.0000 C   0  0  0  0  0  0  0  0  0  0  0  0
    2.5670  -13.6436    0.0000 N   0  0  0  0  0  0  0  0  0  0  0  0
    6.1105  -15.3055    0.0000 C   0  0  0  0  0  0  0  0  0  0  0  0
    6.5814  -16.7215    0.0000 C   0  0  0  0  0  0  0  0  0  0  0  0
    8.0814  -16.7102    0.0000 C   0  0  0  0  0  0  0  0  0  0  0  0
    8.5357  -15.2824    0.0000 C   0  0  0  0  0  0  0  0  0  0  0  0
    7.3165  -14.4087    0.0000 S   0  0  0  0  0  0  0  0  0  0  0  0
    9.9593  -14.8095    0.0000 C   0  0  0  0  0  0  0  0  0  0  0  0
   11.0804  -15.8061    0.0000 N   0  0  0  0  0  0  0  0  0  0  0  0
   10.2615  -13.3405    0.0000 O   0  0  0  0  0  0  0  0  0  0  0  0
    9.3788  -17.4624    0.0000 O   0  0  0  0  0  0  0  0  0  0  0  0
    9.3755  -18.9623    0.0000 C   0  0  0  0  0  0  0  0  0  0  0  0
   10.6728  -19.7152    0.0000 C   0  0  0  0  0  0  0  0  0  0  0  0
   10.6659  -21.2121    0.0000 C   0  0  0  0  0  0  0  0  0  0  0  0
   11.9618  -21.9648    0.0000 C   0  0  0  0  0  0  0  0  0  0  0  0
   13.2642  -21.2175    0.0000 C   0  0  0  0  0  0  0  0  0  0  0  0
   13.2627  -19.7100    0.0000 C   0  0  0  0  0  0  0  0  0  0  0  0
   11.9658  -18.9640    0.0000 C   0  0  0  0  0  0  0  0  0  0  0  0
   11.9626  -17.4640    0.0000 C   0  0  0  0  0  0  0  0  0  0  0  0
   11.9538  -15.9584    0.0000 F   0  0  0  0  0  0  0  0  0  0  0  0
   13.4625  -17.4580    0.0000 F   0  0  0  0  0  0  0  0  0  0  0  0
   10.4626  -17.4757    0.0000 F   0  0  0  0  0  0  0  0  0  0  0  0
 13 14  1  0  0  0  0
 14 10  1  0  0  0  0
  3  4  2  0  0  0  0
 13 15  1  0  0  0  0
  4  6  1  0  0  0  0
 15 16  1  0  0  0  0
  6  7  1  0  0  0  0
 15 17  2  0  0  0  0
  7  8  1  0  0  0  0
 12 18  1  0  0  0  0
  8  9  2  0  0  0  0
 18 19  1  0  0  0  0
  9  5  1  0  0  0  0
 19 20  1  0  0  0  0
  5  1  1  0  0  0  0
 20 21  2  0  0  0  0
  7 10  1  0  0  0  0
 21 22  1  0  0  0  0
 10 11  2  0  0  0  0
 22 23  2  0  0  0  0
  5  6  2  0  0  0  0
 23 24  1  0  0  0  0
 24 25  2  0  0  0  0
 25 20  1  0  0  0  0
  2  3  1  0  0  0  0
 25 26  1  0  0  0  0
  1  2  2  0  0  0  0
 26 27  1  0  0  0  0
 11 12  1  0  0  0  0
 26 28  1  0  0  0  0
 12 13  2  0  0  0  0
 26 29  1  0  0  0  0
M  END
> <Value>
5.899998417198648

> <Relation>
<

> <SourceURI>
mol:CHEMBL481491

$$$$

Generated by Molecular Materials Informatics

 21 24  0  0  0  0  0  0  0  0999 V2000
    8.4089  -13.9890    0.0000 C   0  0  0  0  0  0  0  0  0  0  0  0
    8.4068  -15.4929    0.0000 C   0  0  0  0  0  0  0  0  0  0  0  0
    9.7061  -16.2438    0.0000 C   0  0  0  0  0  0  0  0  0  0  0  0
    9.7029  -13.2386    0.0000 C   0  0  0  0  0  0  0  0  0  0  0  0
   11.0035  -13.9825    0.0000 C   0  0  0  0  0  0  0  0  0  0  0  0
   11.0041  -15.4929    0.0000 C   0  0  0  0  0  0  0  0  0  0  0  0
   12.4407  -15.9595    0.0000 N   0  0  0  0  0  0  0  0  0  0  0  0
   13.3287  -14.7369    0.0000 N   0  0  0  0  0  0  0  0  0  0  0  0
   12.4400  -13.5153    0.0000 C   0  0  0  0  0  0  0  0  0  0  0  0
    7.1101  -13.2393    0.0000 C   0  0  0  0  0  0  0  0  0  0  0  0
    6.9529  -11.7494    0.0000 C   0  0  0  0  0  0  0  0  0  0  0  0
    5.4859  -11.4377    0.0000 N   0  0  0  0  0  0  0  0  0  0  0  0
    4.7362  -12.7369    0.0000 N   0  0  0  0  0  0  0  0  0  0  0  0
    5.7400  -13.8514    0.0000 N   0  0  0  0  0  0  0  0  0  0  0  0
    4.7311  -10.1414    0.0000 C   0  0  0  0  0  0  0  0  0  0  0  0
    5.4759   -8.8396    0.0000 C   0  0  0  0  0  0  0  0  0  0  0  0
    6.9768   -8.8427    0.0000 C   0  0  0  0  0  0  0  0  0  0  0  0
    7.7214   -7.5428    0.0000 C   0  0  0  0  0  0  0  0  0  0  0  0
    6.9669   -6.2449    0.0000 C   0  0  0  0  0  0  0  0  0  0  0  0
    5.4591   -6.2554    0.0000 C   0  0  0  0  0  0  0  0  0  0  0  0
    4.7213   -7.5568    0.0000 C   0  0  0  0  0  0  0  0  0  0  0  0
  1 10  1  0  0  0  0
 10 11  2  0  0  0  0
  5  6  1  0  0  0  0
  2  3  1  0  0  0  0
  3  6  2  0  0  0  0
 11 12  1  0  0  0  0
 12 13  1  0  0  0  0
 13 14  2  0  0  0  0
 14 10  1  0  0  0  0
  1  2  2  0  0  0  0
 12 15  1  0  0  0  0
  5  4  2  0  0  0  0
 15 16  1  0  0  0  0
  6  7  1  0  0  0  0
 16 17  2  0  0  0  0
  7  8  1  0  0  0  0
 17 18  1  0  0  0  0
  8  9  2  0  0  0  0
 18 19  2  0  0  0  0
  9  5  1  0  0  0  0
 19 20  1  0  0  0  0
  4  1  1  0  0  0  0
 20 21  2  0  0  0  0
 21 16  1  0  0  0  0
M  END
> <Value>
6.499996931948306

> <Relation>
=

> <SourceURI>
mol:CHEMBL1682345

$$$$

Generated by Molecular Materials Informatics

 18 19  0  0  0  0  0  0  0  0999 V2000
    2.0889   -2.8696    0.0000 Cl  0  0  0  0  0  0  0  0  0  0  0  0
    4.6869   -1.3696    0.0000 Cl  0  0  0  0  0  0  0  0  0  0  0  0
   -0.6367    1.3439    0.0000 S   0  0  0  0  0  0  0  0  0  0  0  0
   -3.7683   -1.1687    0.0000 O   0  0  0  0  0  0  0  0  0  0  0  0
    1.3708   -3.3127    0.0000 O   0  0  0  0  0  0  0  0  0  0  0  0
   -1.1002   -2.5098    0.0000 N   0  0  0  0  0  0  0  0  0  0  0  0
   -3.7683    1.4293    0.0000 N   0  0  0  0  0  0  0  0  0  0  0  0
    0.7898   -0.6196    0.0000 C   0  0  0  0  0  0  0  0  0  0  0  0
   -0.6367   -1.0832    0.0000 C   0  0  0  0  0  0  0  0  0  0  0  0
    0.7898    0.8804    0.0000 C   0  0  0  0  0  0  0  0  0  0  0  0
   -1.5183    0.1304    0.0000 C   0  0  0  0  0  0  0  0  0  0  0  0
    2.0889   -1.3696    0.0000 C   0  0  0  0  0  0  0  0  0  0  0  0
    3.3880   -0.6196    0.0000 C   0  0  0  0  0  0  0  0  0  0  0  0
    2.0889    1.6304    0.0000 C   0  0  0  0  0  0  0  0  0  0  0  0
   -3.0183    0.1304    0.0000 C   0  0  0  0  0  0  0  0  0  0  0  0
    3.3880    0.8804    0.0000 C   0  0  0  0  0  0  0  0  0  0  0  0
   -0.0965   -3.6245    0.0000 C   0  0  0  0  0  0  0  0  0  0  0  0
   -0.5602   -5.0510    0.0000 C   0  0  0  0  0  0  0  0  0  0  0  0
  1 12  1  0  0  0  0
  2 13  1  0  0  0  0
  3 10  1  0  0  0  0
  3 11  1  0  0  0  0
  4 15  2  0  0  0  0
  5 17  2  0  0  0  0
  6  9  1  0  0  0  0
  6 17  1  0  0  0  0
  7 15  1  0  0  0  0
  8  9  1  0  0  0  0
  8 10  1  0  0  0  0
  8 12  2  0  0  0  0
  9 11  2  0  0  0  0
 10 14  2  0  0  0  0
 11 15  1  0  0  0  0
 12 13  1  0  0  0  0
 13 16  2  0  0  0  0
 14 16  1  0  0  0  0
 17 18  1  0  0  0  0
M  END
> <Value>
5.899998417198648

> <Relation>
<

> <SourceURI>
mol:CHEMBL1973142

$$$$

Generated by Molecular Materials Informatics

 33 37  0  0  0  0  0  0  0  0999 V2000
   -5.2331   -0.7042    0.0000 O   0  0  0  0  0  0  0  0  0  0  0  0
    6.3693   -1.4542    0.0000 O   0  0  0  0  0  0  0  0  0  0  0  0
   -2.8514    0.5093    0.0000 N   0  0  0  0  0  0  0  0  0  0  0  0
   -2.6231   -5.9263    0.0000 N   0  0  0  0  0  0  0  0  0  0  0  0
    3.7713   -4.4542    0.0000 N   0  0  0  0  0  0  0  0  0  0  0  0
    8.9675    0.0458    0.0000 N   0  0  0  0  0  0  0  0  0  0  0  0
   -1.4249   -1.4542    0.0000 C   0  0  0  0  0  0  0  0  0  0  0  0
   -2.8514   -1.9178    0.0000 C   0  0  0  0  0  0  0  0  0  0  0  0
   -1.4249    0.0458    0.0000 C   0  0  0  0  0  0  0  0  0  0  0  0
   -3.7331   -0.7042    0.0000 C   0  0  0  0  0  0  0  0  0  0  0  0
    1.1733   -1.4542    0.0000 C   0  0  0  0  0  0  0  0  0  0  0  0
   -0.1258   -2.2042    0.0000 C   0  0  0  0  0  0  0  0  0  0  0  0
   -0.1258    0.7958    0.0000 C   0  0  0  0  0  0  0  0  0  0  0  0
    2.4722   -2.2042    0.0000 C   0  0  0  0  0  0  0  0  0  0  0  0
   -3.3149   -3.3443    0.0000 C   0  0  0  0  0  0  0  0  0  0  0  0
    1.1733    0.0458    0.0000 C   0  0  0  0  0  0  0  0  0  0  0  0
   -2.3113   -4.4591    0.0000 C   0  0  0  0  0  0  0  0  0  0  0  0
    3.7713   -1.4542    0.0000 C   0  0  0  0  0  0  0  0  0  0  0  0
    2.4722   -3.7042    0.0000 C   0  0  0  0  0  0  0  0  0  0  0  0
    5.0704   -2.2042    0.0000 C   0  0  0  0  0  0  0  0  0  0  0  0
   -0.8194   -4.3023    0.0000 C   0  0  0  0  0  0  0  0  0  0  0  0
    5.0704   -3.7042    0.0000 C   0  0  0  0  0  0  0  0  0  0  0  0
   -1.3242   -6.6763    0.0000 C   0  0  0  0  0  0  0  0  0  0  0  0
   -0.2094   -5.6725    0.0000 C   0  0  0  0  0  0  0  0  0  0  0  0
    6.3693    0.0458    0.0000 C   0  0  0  0  0  0  0  0  0  0  0  0
    7.6684    0.7958    0.0000 C   0  0  0  0  0  0  0  0  0  0  0  0
    7.6684    2.2958    0.0000 C   0  0  0  0  0  0  0  0  0  0  0  0
    8.9675    3.0458    0.0000 C   0  0  0  0  0  0  0  0  0  0  0  0
    8.9675    4.5458    0.0000 C   0  0  0  0  0  0  0  0  0  0  0  0
   10.2666    2.2958    0.0000 C   0  0  0  0  0  0  0  0  0  0  0  0
   10.2666    5.2958    0.0000 C   0  0  0  0  0  0  0  0  0  0  0  0
   11.5655    3.0458    0.0000 C   0  0  0  0  0  0  0  0  0  0  0  0
   11.5655    4.5458    0.0000 C   0  0  0  0  0  0  0  0  0  0  0  0
  1 10  2  0  0  0  0
  2 20  1  0  0  0  0
  2 25  1  0  0  0  0
  3  9  1  0  0  0  0
  3 10  1  0  0  0  0
  4 17  1  0  0  0  0
  4 23  1  0  0  0  0
  5 19  2  0  0  0  0
  5 22  1  0  0  0  0
  6 26  1  0  0  0  0
  7  8  1  0  0  0  0
  7  9  1  0  0  0  0
  7 12  2  0  0  0  0
  8 10  1  0  0  0  0
  8 15  2  0  0  0  0
  9 13  2  0  0  0  0
 11 12  1  0  0  0  0
 11 14  1  0  0  0  0
 11 16  2  0  0  0  0
 13 16  1  0  0  0  0
 14 18  2  0  0  0  0
 14 19  1  0  0  0  0
 15 17  1  0  0  0  0
 17 21  2  0  0  0  0
 18 20  1  0  0  0  0
 20 22  2  0  0  0  0
 21 24  1  0  0  0  0
 23 24  2  0  0  0  0
 25 26  1  0  0  0  0
 26 27  1  0  0  0  0
 27 28  1  0  0  0  0
 28 29  2  0  0  0  0
 28 30  1  0  0  0  0
 29 31  1  0  0  0  0
 30 32  2  0  0  0  0
 31 33  2  0  0  0  0
 32 33  1  0  0  0  0
M  END
> <Value>
8.300162274132754

> <Relation>
=

> <SourceURI>
mol:CHEMBL1980407

$$$$

Generated by Molecular Materials Informatics

 28 31  0  0  0  0  0  0  0  0999 V2000
   -1.4437   -3.7358    0.0000 S   0  0  0  0  0  0  0  0  0  0  0  0
   -0.8270    5.2004    0.0000 O   0  0  0  0  0  0  0  0  0  0  0  0
    1.2820   -4.0224    0.0000 N   0  0  0  0  0  0  0  0  0  0  0  0
    2.5809   -1.7724    0.0000 N   0  0  0  0  0  0  0  0  0  0  0  0
    1.2820    0.4776    0.0000 N   0  0  0  0  0  0  0  0  0  0  0  0
    3.8800   -4.0224    0.0000 N   0  0  0  0  0  0  0  0  0  0  0  0
   -3.2979    4.3975    0.0000 N   0  0  0  0  0  0  0  0  0  0  0  0
   -2.7577    6.9387    0.0000 N   0  0  0  0  0  0  0  0  0  0  0  0
   -0.0171   -1.7724    0.0000 C   0  0  0  0  0  0  0  0  0  0  0  0
   -1.4437   -1.3089    0.0000 C   0  0  0  0  0  0  0  0  0  0  0  0
   -0.0171   -3.2724    0.0000 C   0  0  0  0  0  0  0  0  0  0  0  0
    1.2820   -1.0224    0.0000 C   0  0  0  0  0  0  0  0  0  0  0  0
   -1.9073    0.1178    0.0000 C   0  0  0  0  0  0  0  0  0  0  0  0
   -2.3253   -2.5224    0.0000 C   0  0  0  0  0  0  0  0  0  0  0  0
    2.5809   -3.2724    0.0000 C   0  0  0  0  0  0  0  0  0  0  0  0
   -3.3744    0.4296    0.0000 C   0  0  0  0  0  0  0  0  0  0  0  0
   -0.9035    1.2325    0.0000 C   0  0  0  0  0  0  0  0  0  0  0  0
   -2.8342    2.9709    0.0000 C   0  0  0  0  0  0  0  0  0  0  0  0
   -3.8381    1.8562    0.0000 C   0  0  0  0  0  0  0  0  0  0  0  0
   -1.3671    2.6591    0.0000 C   0  0  0  0  0  0  0  0  0  0  0  0
   -2.2941    5.5122    0.0000 C   0  0  0  0  0  0  0  0  0  0  0  0
   -1.7541    8.0535    0.0000 C   0  0  0  0  0  0  0  0  0  0  0  0
   -2.2175    9.4802    0.0000 C   0  0  0  0  0  0  0  0  0  0  0  0
   -1.2139   10.5949    0.0000 C   0  0  0  0  0  0  0  0  0  0  0  0
   -0.2868    7.7416    0.0000 C   0  0  0  0  0  0  0  0  0  0  0  0
    0.2534   10.2829    0.0000 C   0  0  0  0  0  0  0  0  0  0  0  0
    0.7170    8.8564    0.0000 C   0  0  0  0  0  0  0  0  0  0  0  0
   -1.6773   12.0215    0.0000 C   0  0  0  0  0  0  0  0  0  0  0  0
  1 11  1  0  0  0  0
  1 14  1  0  0  0  0
  2 21  2  0  0  0  0
  3 11  2  0  0  0  0
  3 15  1  0  0  0  0
  4 12  1  0  0  0  0
  4 15  2  0  0  0  0
  5 12  1  0  0  0  0
  6 15  1  0  0  0  0
  7 18  1  0  0  0  0
  7 21  1  0  0  0  0
  8 21  1  0  0  0  0
  8 22  1  0  0  0  0
  9 10  1  0  0  0  0
  9 11  1  0  0  0  0
  9 12  2  0  0  0  0
 10 13  1  0  0  0  0
 10 14  2  0  0  0  0
 13 16  2  0  0  0  0
 13 17  1  0  0  0  0
 16 19  1  0  0  0  0
 17 20  2  0  0  0  0
 18 19  2  0  0  0  0
 18 20  1  0  0  0  0
 22 23  2  0  0  0  0
 22 25  1  0  0  0  0
 23 24  1  0  0  0  0
 24 26  2  0  0  0  0
 24 28  1  0  0  0  0
 25 27  2  0  0  0  0
 26 27  1  0  0  0  0
M  END
> <Value>
5.899998417198648

> <Relation>
<

> <SourceURI>
mol:CHEMBL1973145

$$$$

Generated by Molecular Materials Informatics

 26 29  0  0  0  0  0  0  0  0999 V2000
    1.7040    2.6437    0.0000 O   0  0  0  0  0  0  0  0  0  0  0  0
    5.6013    6.3938    0.0000 O   0  0  0  0  0  0  0  0  0  0  0  0
   -2.3205   -2.3197    0.0000 N   0  0  0  0  0  0  0  0  0  0  0  0
    0.4051   -2.6063    0.0000 N   0  0  0  0  0  0  0  0  0  0  0  0
    3.0031    0.3937    0.0000 N   0  0  0  0  0  0  0  0  0  0  0  0
   -0.8940   -0.3563    0.0000 C   0  0  0  0  0  0  0  0  0  0  0  0
   -2.3205    0.1072    0.0000 C   0  0  0  0  0  0  0  0  0  0  0  0
   -0.8940   -1.8563    0.0000 C   0  0  0  0  0  0  0  0  0  0  0  0
    0.4051    0.3937    0.0000 C   0  0  0  0  0  0  0  0  0  0  0  0
    1.7040   -0.3563    0.0000 C   0  0  0  0  0  0  0  0  0  0  0  0
   -2.7842    1.5339    0.0000 C   0  0  0  0  0  0  0  0  0  0  0  0
   -3.2022   -1.1063    0.0000 C   0  0  0  0  0  0  0  0  0  0  0  0
    1.7040   -1.8563    0.0000 C   0  0  0  0  0  0  0  0  0  0  0  0
    3.0031    1.8938    0.0000 C   0  0  0  0  0  0  0  0  0  0  0  0
    4.3022    2.6437    0.0000 C   0  0  0  0  0  0  0  0  0  0  0  0
   -4.2513    1.8457    0.0000 C   0  0  0  0  0  0  0  0  0  0  0  0
   -1.7803    2.6487    0.0000 C   0  0  0  0  0  0  0  0  0  0  0  0
    4.3022    4.1438    0.0000 C   0  0  0  0  0  0  0  0  0  0  0  0
    5.6013    4.8938    0.0000 C   0  0  0  0  0  0  0  0  0  0  0  0
    5.6013    1.8938    0.0000 C   0  0  0  0  0  0  0  0  0  0  0  0
   -4.7149    3.2723    0.0000 C   0  0  0  0  0  0  0  0  0  0  0  0
   -2.2440    4.0752    0.0000 C   0  0  0  0  0  0  0  0  0  0  0  0
    6.9002    4.1438    0.0000 C   0  0  0  0  0  0  0  0  0  0  0  0
    6.9002    2.6437    0.0000 C   0  0  0  0  0  0  0  0  0  0  0  0
   -3.7111    4.3870    0.0000 C   0  0  0  0  0  0  0  0  0  0  0  0
    4.3022    7.1438    0.0000 C   0  0  0  0  0  0  0  0  0  0  0  0
  1 14  2  0  0  0  0
  2 19  1  0  0  0  0
  2 26  1  0  0  0  0
  3  8  1  0  0  0  0
  3 12  1  0  0  0  0
  4  8  2  0  0  0  0
  4 13  1  0  0  0  0
  5 10  1  0  0  0  0
  5 14  1  0  0  0  0
  6  7  1  0  0  0  0
  6  8  1  0  0  0  0
  6  9  2  0  0  0  0
  7 11  1  0  0  0  0
  7 12  2  0  0  0  0
  9 10  1  0  0  0  0
 10 13  2  0  0  0  0
 11 16  2  0  0  0  0
 11 17  1  0  0  0  0
 14 15  1  0  0  0  0
 15 18  2  0  0  0  0
 15 20  1  0  0  0  0
 16 21  1  0  0  0  0
 17 22  2  0  0  0  0
 18 19  1  0  0  0  0
 19 23  2  0  0  0  0
 20 24  2  0  0  0  0
 21 25  2  0  0  0  0
 22 25  1  0  0  0  0
 23 24  1  0  0  0  0
M  END
> <Value>
5.899998417198648

> <Relation>
<

> <SourceURI>
mol:CHEMBL1982924

$$$$

Generated by Molecular Materials Informatics

 33 37  0  0  0  0  0  0  0  0999 V2000
   -4.9049    0.2718    0.0000 O   0  0  0  0  0  0  0  0  0  0  0  0
    5.7273    0.1045    0.0000 N   0  0  0  0  0  0  0  0  0  0  0  0
    3.5102   -0.8826    0.0000 N   0  0  0  0  0  0  0  0  0  0  0  0
    4.9773   -1.1946    0.0000 N   0  0  0  0  0  0  0  0  0  0  0  0
   -1.9704    3.3227    0.0000 N   0  0  0  0  0  0  0  0  0  0  0  0
   -2.8520    2.1090    0.0000 N   0  0  0  0  0  0  0  0  0  0  0  0
   -2.4338   -0.5310    0.0000 N   0  0  0  0  0  0  0  0  0  0  0  0
    3.3533    0.6090    0.0000 C   0  0  0  0  0  0  0  0  0  0  0  0
    4.7236    1.2192    0.0000 C   0  0  0  0  0  0  0  0  0  0  0  0
    2.0543    1.3590    0.0000 C   0  0  0  0  0  0  0  0  0  0  0  0
   -0.5438    1.3590    0.0000 C   0  0  0  0  0  0  0  0  0  0  0  0
   -0.5438    2.8590    0.0000 C   0  0  0  0  0  0  0  0  0  0  0  0
    0.7553    0.6090    0.0000 C   0  0  0  0  0  0  0  0  0  0  0  0
    5.0354    2.6865    0.0000 C   0  0  0  0  0  0  0  0  0  0  0  0
   -1.9704    0.8956    0.0000 C   0  0  0  0  0  0  0  0  0  0  0  0
    2.0543    2.8590    0.0000 C   0  0  0  0  0  0  0  0  0  0  0  0
    0.7553    3.6090    0.0000 C   0  0  0  0  0  0  0  0  0  0  0  0
    7.2191    0.2612    0.0000 C   0  0  0  0  0  0  0  0  0  0  0  0
    3.9207    3.6901    0.0000 C   0  0  0  0  0  0  0  0  0  0  0  0
    6.4622    3.1500    0.0000 C   0  0  0  0  0  0  0  0  0  0  0  0
    8.1007   -0.9522    0.0000 C   0  0  0  0  0  0  0  0  0  0  0  0
   -3.9011   -0.8428    0.0000 C   0  0  0  0  0  0  0  0  0  0  0  0
    4.2327    5.1574    0.0000 C   0  0  0  0  0  0  0  0  0  0  0  0
    6.7740    4.6172    0.0000 C   0  0  0  0  0  0  0  0  0  0  0  0
    5.6593    5.6209    0.0000 C   0  0  0  0  0  0  0  0  0  0  0  0
    9.5925   -0.7955    0.0000 C   0  0  0  0  0  0  0  0  0  0  0  0
    7.4907   -2.3226    0.0000 C   0  0  0  0  0  0  0  0  0  0  0  0
   -4.3647   -2.2695    0.0000 C   0  0  0  0  0  0  0  0  0  0  0  0
   10.4742   -2.0090    0.0000 C   0  0  0  0  0  0  0  0  0  0  0  0
    8.3724   -3.5360    0.0000 C   0  0  0  0  0  0  0  0  0  0  0  0
    9.8642   -3.3793    0.0000 C   0  0  0  0  0  0  0  0  0  0  0  0
   -5.8318   -2.5813    0.0000 C   0  0  0  0  0  0  0  0  0  0  0  0
   -6.2955   -4.0079    0.0000 C   0  0  0  0  0  0  0  0  0  0  0  0
  1 22  2  0  0  0  0
  2  4  1  0  0  0  0
  2  9  1  0  0  0  0
  2 18  1  0  0  0  0
  3  4  2  0  0  0  0
  3  8  1  0  0  0  0
  5  6  1  0  0  0  0
  5 12  1  0  0  0  0
  6 15  2  0  0  0  0
  7 15  1  0  0  0  0
  7 22  1  0  0  0  0
  8  9  2  0  0  0  0
  8 10  1  0  0  0  0
  9 14  1  0  0  0  0
 10 13  1  0  0  0  0
 10 16  2  0  0  0  0
 11 12  1  0  0  0  0
 11 13  2  0  0  0  0
 11 15  1  0  0  0  0
 12 17  2  0  0  0  0
 14 19  2  0  0  0  0
 14 20  1  0  0  0  0
 16 17  1  0  0  0  0
 18 21  1  0  0  0  0
 19 23  1  0  0  0  0
 20 24  2  0  0  0  0
 21 26  2  0  0  0  0
 21 27  1  0  0  0  0
 22 28  1  0  0  0  0
 23 25  2  0  0  0  0
 24 25  1  0  0  0  0
 26 29  1  0  0  0  0
 27 30  2  0  0  0  0
 28 32  1  0  0  0  0
 29 31  2  0  0  0  0
 30 31  1  0  0  0  0
 32 33  1  0  0  0  0
M  END
> <Value>
6.299997602857746

> <Relation>
=

> <SourceURI>
mol:CHEMBL2005936

$$$$

Generated by Molecular Materials Informatics

 23 26  0  0  0  0  0  0  0  0999 V2000
   -1.1514   -3.1640    0.0000 N   0  0  0  0  0  0  0  0  0  0  0  0
   -0.6112    1.8043    0.0000 N   0  0  0  0  0  0  0  0  0  0  0  0
    1.5742   -3.4506    0.0000 N   0  0  0  0  0  0  0  0  0  0  0  0
   -2.5419    3.5427    0.0000 N   0  0  0  0  0  0  0  0  0  0  0  0
   -0.0710    4.3456    0.0000 N   0  0  0  0  0  0  0  0  0  0  0  0
   -1.9252   10.0520    0.0000 N   0  0  0  0  0  0  0  0  0  0  0  0
   -1.1514   -0.7371    0.0000 C   0  0  0  0  0  0  0  0  0  0  0  0
    0.2752   -1.2006    0.0000 C   0  0  0  0  0  0  0  0  0  0  0  0
   -1.6150    0.6896    0.0000 C   0  0  0  0  0  0  0  0  0  0  0  0
    0.2752   -2.7006    0.0000 C   0  0  0  0  0  0  0  0  0  0  0  0
   -2.0330   -1.9506    0.0000 C   0  0  0  0  0  0  0  0  0  0  0  0
   -1.0748    3.2309    0.0000 C   0  0  0  0  0  0  0  0  0  0  0  0
    1.5742   -0.4506    0.0000 C   0  0  0  0  0  0  0  0  0  0  0  0
   -3.0821    1.0014    0.0000 C   0  0  0  0  0  0  0  0  0  0  0  0
   -3.5458    2.4280    0.0000 C   0  0  0  0  0  0  0  0  0  0  0  0
    2.8732   -1.2006    0.0000 C   0  0  0  0  0  0  0  0  0  0  0  0
   -0.5347    5.7722    0.0000 C   0  0  0  0  0  0  0  0  0  0  0  0
    2.8732   -2.7006    0.0000 C   0  0  0  0  0  0  0  0  0  0  0  0
   -2.0018    6.0840    0.0000 C   0  0  0  0  0  0  0  0  0  0  0  0
    0.4692    6.8869    0.0000 C   0  0  0  0  0  0  0  0  0  0  0  0
   -1.4618    8.6253    0.0000 C   0  0  0  0  0  0  0  0  0  0  0  0
   -2.4654    7.5105    0.0000 C   0  0  0  0  0  0  0  0  0  0  0  0
    0.0055    8.3134    0.0000 C   0  0  0  0  0  0  0  0  0  0  0  0
  1 10  1  0  0  0  0
  1 11  1  0  0  0  0
  2  9  2  0  0  0  0
  2 12  1  0  0  0  0
  3 10  2  0  0  0  0
  3 18  1  0  0  0  0
  4 12  2  0  0  0  0
  4 15  1  0  0  0  0
  5 12  1  0  0  0  0
  5 17  1  0  0  0  0
  6 21  1  0  0  0  0
  7  8  1  0  0  0  0
  7  9  1  0  0  0  0
  7 11  2  0  0  0  0
  8 10  1  0  0  0  0
  8 13  2  0  0  0  0
  9 14  1  0  0  0  0
 13 16  1  0  0  0  0
 14 15  2  0  0  0  0
 16 18  2  0  0  0  0
 17 19  1  0  0  0  0
 17 20  1  0  0  0  0
 19 22  1  0  0  0  0
 20 23  1  0  0  0  0
 21 22  1  0  0  0  0
 21 23  1  0  0  0  0
M  END
> <Value>
6.799998134593398

> <Relation>
=

> <SourceURI>
mol:CHEMBL1966628

$$$$

Generated by Molecular Materials Informatics

 39 42  0  0  0  0  0  0  0  0999 V2000
   -0.5625    1.4658    0.0000 O   0  0  0  0  0  0  0  0  0  0  0  0
    5.4142   -1.4606    0.0000 O   0  0  0  0  0  0  0  0  0  0  0  0
    0.2180   -2.9606    0.0000 N   0  0  0  0  0  0  0  0  0  0  0  0
   -1.1523   -3.5706    0.0000 N   0  0  0  0  0  0  0  0  0  0  0  0
    1.1760   -0.4649    0.0000 N   0  0  0  0  0  0  0  0  0  0  0  0
    1.9788    2.0060    0.0000 N   0  0  0  0  0  0  0  0  0  0  0  0
    6.7133   -3.7106    0.0000 N   0  0  0  0  0  0  0  0  0  0  0  0
   11.9095   -3.7106    0.0000 N   0  0  0  0  0  0  0  0  0  0  0  0
    0.0613   -1.4688    0.0000 C   0  0  0  0  0  0  0  0  0  0  0  0
   -2.1560   -2.4559    0.0000 C   0  0  0  0  0  0  0  0  0  0  0  0
    1.5171   -3.7106    0.0000 C   0  0  0  0  0  0  0  0  0  0  0  0
   -1.4060   -1.1569    0.0000 C   0  0  0  0  0  0  0  0  0  0  0  0
   -3.6478   -2.6128    0.0000 C   0  0  0  0  0  0  0  0  0  0  0  0
    2.8162   -2.9606    0.0000 C   0  0  0  0  0  0  0  0  0  0  0  0
    4.1151   -3.7106    0.0000 C   0  0  0  0  0  0  0  0  0  0  0  0
    1.5171   -5.2106    0.0000 C   0  0  0  0  0  0  0  0  0  0  0  0
    0.8640    1.0021    0.0000 C   0  0  0  0  0  0  0  0  0  0  0  0
    1.6669    3.4731    0.0000 C   0  0  0  0  0  0  0  0  0  0  0  0
    2.7817    4.4769    0.0000 C   0  0  0  0  0  0  0  0  0  0  0  0
    5.4142   -2.9606    0.0000 C   0  0  0  0  0  0  0  0  0  0  0  0
    4.1151   -5.2106    0.0000 C   0  0  0  0  0  0  0  0  0  0  0  0
    2.4699    5.9440    0.0000 C   0  0  0  0  0  0  0  0  0  0  0  0
    2.8162   -5.9606    0.0000 C   0  0  0  0  0  0  0  0  0  0  0  0
   -5.1396   -2.7695    0.0000 C   0  0  0  0  0  0  0  0  0  0  0  0
   -3.8045   -1.1209    0.0000 C   0  0  0  0  0  0  0  0  0  0  0  0
   -3.4909   -4.1044    0.0000 C   0  0  0  0  0  0  0  0  0  0  0  0
    0.2404    3.9367    0.0000 C   0  0  0  0  0  0  0  0  0  0  0  0
    4.2082    4.0132    0.0000 C   0  0  0  0  0  0  0  0  0  0  0  0
    1.0433    6.4076    0.0000 C   0  0  0  0  0  0  0  0  0  0  0  0
    3.5846    6.9478    0.0000 C   0  0  0  0  0  0  0  0  0  0  0  0
   -0.0714    5.4038    0.0000 C   0  0  0  0  0  0  0  0  0  0  0  0
    5.3229    5.0171    0.0000 C   0  0  0  0  0  0  0  0  0  0  0  0
    5.0111    6.4841    0.0000 C   0  0  0  0  0  0  0  0  0  0  0  0
    8.0122   -2.9606    0.0000 C   0  0  0  0  0  0  0  0  0  0  0  0
    6.7133   -5.2106    0.0000 C   0  0  0  0  0  0  0  0  0  0  0  0
    9.3113   -3.7106    0.0000 C   0  0  0  0  0  0  0  0  0  0  0  0
   10.6104   -2.9606    0.0000 C   0  0  0  0  0  0  0  0  0  0  0  0
   13.2084   -2.9606    0.0000 C   0  0  0  0  0  0  0  0  0  0  0  0
   11.9095   -5.2106    0.0000 C   0  0  0  0  0  0  0  0  0  0  0  0
  1 17  2  0  0  0  0
  2 20  2  0  0  0  0
  3  4  1  0  0  0  0
  3  9  1  0  0  0  0
  3 11  1  0  0  0  0
  4 10  2  0  0  0  0
  5  9  1  0  0  0  0
  5 17  1  0  0  0  0
  6 17  1  0  0  0  0
  6 18  1  0  0  0  0
  7 20  1  0  0  0  0
  7 34  1  0  0  0  0
  7 35  1  0  0  0  0
  8 37  1  0  0  0  0
  8 38  1  0  0  0  0
  8 39  1  0  0  0  0
  9 12  2  0  0  0  0
 10 12  1  0  0  0  0
 10 13  1  0  0  0  0
 11 14  2  0  0  0  0
 11 16  1  0  0  0  0
 13 24  1  0  0  0  0
 13 25  1  0  0  0  0
 13 26  1  0  0  0  0
 14 15  1  0  0  0  0
 15 20  1  0  0  0  0
 15 21  2  0  0  0  0
 16 23  2  0  0  0  0
 18 19  1  0  0  0  0
 18 27  2  0  0  0  0
 19 22  1  0  0  0  0
 19 28  2  0  0  0  0
 21 23  1  0  0  0  0
 22 29  1  0  0  0  0
 22 30  2  0  0  0  0
 27 31  1  0  0  0  0
 28 32  1  0  0  0  0
 29 31  2  0  0  0  0
 30 33  1  0  0  0  0
 32 33  2  0  0  0  0
 34 36  1  0  0  0  0
 36 37  1  0  0  0  0
M  END
> <Value>
5.300000202445418

> <Relation>
<

> <SourceURI>
mol:CHEMBL1964948

$$$$

Generated by Molecular Materials Informatics

 26 28  0  0  0  0  0  0  0  0999 V2000
    6.7224    0.4312    0.0000 O   0  0  0  0  0  0  0  0  0  0  0  0
    6.7224  -10.0686    0.0000 O   0  0  0  0  0  0  0  0  0  0  0  0
    4.1245    0.4312    0.0000 N   0  0  0  0  0  0  0  0  0  0  0  0
    5.4236    2.6812    0.0000 N   0  0  0  0  0  0  0  0  0  0  0  0
    8.0215   -7.8187    0.0000 N   0  0  0  0  0  0  0  0  0  0  0  0
    4.1245   -5.5687    0.0000 C   0  0  0  0  0  0  0  0  0  0  0  0
    4.1245   -4.0687    0.0000 C   0  0  0  0  0  0  0  0  0  0  0  0
    4.1245   -1.0688    0.0000 C   0  0  0  0  0  0  0  0  0  0  0  0
    5.4236   -7.8187    0.0000 C   0  0  0  0  0  0  0  0  0  0  0  0
    5.4236   -6.3187    0.0000 C   0  0  0  0  0  0  0  0  0  0  0  0
    2.8254   -3.3187    0.0000 C   0  0  0  0  0  0  0  0  0  0  0  0
    5.4236   -3.3187    0.0000 C   0  0  0  0  0  0  0  0  0  0  0  0
    2.8254   -6.3187    0.0000 C   0  0  0  0  0  0  0  0  0  0  0  0
    2.8254   -1.8187    0.0000 C   0  0  0  0  0  0  0  0  0  0  0  0
    5.4236   -1.8187    0.0000 C   0  0  0  0  0  0  0  0  0  0  0  0
    5.4236    1.1812    0.0000 C   0  0  0  0  0  0  0  0  0  0  0  0
    4.1245   -8.5686    0.0000 C   0  0  0  0  0  0  0  0  0  0  0  0
    6.7224    3.4312    0.0000 C   0  0  0  0  0  0  0  0  0  0  0  0
    6.7224   -8.5686    0.0000 C   0  0  0  0  0  0  0  0  0  0  0  0
    2.8254   -7.8187    0.0000 C   0  0  0  0  0  0  0  0  0  0  0  0
    6.7224    4.9312    0.0000 C   0  0  0  0  0  0  0  0  0  0  0  0
    8.0215    5.6811    0.0000 C   0  0  0  0  0  0  0  0  0  0  0  0
    8.0215    2.6812    0.0000 C   0  0  0  0  0  0  0  0  0  0  0  0
    9.3206    4.9312    0.0000 C   0  0  0  0  0  0  0  0  0  0  0  0
    9.3206    3.4312    0.0000 C   0  0  0  0  0  0  0  0  0  0  0  0
    8.0215    7.1811    0.0000 C   0  0  0  0  0  0  0  0  0  0  0  0
  1 16  2  0  0  0  0
  2 19  2  0  0  0  0
  3  8  1  0  0  0  0
  3 16  1  0  0  0  0
  4 16  1  0  0  0  0
  4 18  1  0  0  0  0
  5 19  1  0  0  0  0
  6  7  1  0  0  0  0
  6 10  1  0  0  0  0
  6 13  2  0  0  0  0
  7 11  2  0  0  0  0
  7 12  1  0  0  0  0
  8 14  2  0  0  0  0
  8 15  1  0  0  0  0
  9 10  2  0  0  0  0
  9 17  1  0  0  0  0
  9 19  1  0  0  0  0
 11 14  1  0  0  0  0
 12 15  2  0  0  0  0
 13 20  1  0  0  0  0
 17 20  2  0  0  0  0
 18 21  2  0  0  0  0
 18 23  1  0  0  0  0
 21 22  1  0  0  0  0
 22 24  2  0  0  0  0
 22 26  1  0  0  0  0
 23 25  2  0  0  0  0
 24 25  1  0  0  0  0
M  END
> <Value>
5.899998417198648

> <Relation>
<

> <SourceURI>
mol:CHEMBL1971141

$$$$

Generated by Molecular Materials Informatics

 23 26  0  0  0  0  0  0  0  0999 V2000
   -1.4793   -2.3817    0.0000 N   0  0  0  0  0  0  0  0  0  0  0  0
   -0.9391    2.5866    0.0000 N   0  0  0  0  0  0  0  0  0  0  0  0
    1.2463   -2.6683    0.0000 N   0  0  0  0  0  0  0  0  0  0  0  0
   -0.3990    5.1279    0.0000 N   0  0  0  0  0  0  0  0  0  0  0  0
   -2.8699    4.3250    0.0000 N   0  0  0  0  0  0  0  0  0  0  0  0
    1.6083    7.3574    0.0000 N   0  0  0  0  0  0  0  0  0  0  0  0
   -1.4793    0.0452    0.0000 C   0  0  0  0  0  0  0  0  0  0  0  0
   -0.0528   -0.4183    0.0000 C   0  0  0  0  0  0  0  0  0  0  0  0
   -1.9430    1.4719    0.0000 C   0  0  0  0  0  0  0  0  0  0  0  0
   -0.0528   -1.9183    0.0000 C   0  0  0  0  0  0  0  0  0  0  0  0
   -2.3610   -1.1683    0.0000 C   0  0  0  0  0  0  0  0  0  0  0  0
   -1.4028    4.0132    0.0000 C   0  0  0  0  0  0  0  0  0  0  0  0
    1.2463    0.3317    0.0000 C   0  0  0  0  0  0  0  0  0  0  0  0
   -3.4101    1.7837    0.0000 C   0  0  0  0  0  0  0  0  0  0  0  0
    1.0681    4.8159    0.0000 C   0  0  0  0  0  0  0  0  0  0  0  0
   -3.8737    3.2103    0.0000 C   0  0  0  0  0  0  0  0  0  0  0  0
    2.5452   -0.4183    0.0000 C   0  0  0  0  0  0  0  0  0  0  0  0
    2.5452   -1.9183    0.0000 C   0  0  0  0  0  0  0  0  0  0  0  0
    2.0720    5.9306    0.0000 C   0  0  0  0  0  0  0  0  0  0  0  0
    1.5318    3.3894    0.0000 C   0  0  0  0  0  0  0  0  0  0  0  0
    3.5391    5.6188    0.0000 C   0  0  0  0  0  0  0  0  0  0  0  0
    2.9989    3.0776    0.0000 C   0  0  0  0  0  0  0  0  0  0  0  0
    4.0027    4.1923    0.0000 C   0  0  0  0  0  0  0  0  0  0  0  0
  1 10  1  0  0  0  0
  1 11  1  0  0  0  0
  2  9  2  0  0  0  0
  2 12  1  0  0  0  0
  3 10  2  0  0  0  0
  3 18  1  0  0  0  0
  4 12  1  0  0  0  0
  4 15  1  0  0  0  0
  5 12  2  0  0  0  0
  5 16  1  0  0  0  0
  6 19  1  0  0  0  0
  7  8  1  0  0  0  0
  7  9  1  0  0  0  0
  7 11  2  0  0  0  0
  8 10  1  0  0  0  0
  8 13  2  0  0  0  0
  9 14  1  0  0  0  0
 13 17  1  0  0  0  0
 14 16  2  0  0  0  0
 15 19  1  0  0  0  0
 15 20  1  0  0  0  0
 17 18  2  0  0  0  0
 19 21  1  0  0  0  0
 20 22  1  0  0  0  0
 21 23  1  0  0  0  0
 22 23  1  0  0  0  0
M  END
> <Value>
7.400007822415902

> <Relation>
=

> <SourceURI>
mol:CHEMBL1995813

$$$$

Generated by Molecular Materials Informatics

 26 29  0  0  0  0  0  0  0  0999 V2000
    3.9583    2.6142    0.0000 O   0  0  0  0  0  0  0  0  0  0  0  0
   -1.3654   -1.5995    0.0000 N   0  0  0  0  0  0  0  0  0  0  0  0
    5.2574    0.3642    0.0000 N   0  0  0  0  0  0  0  0  0  0  0  0
    6.7132    2.6058    0.0000 N   0  0  0  0  0  0  0  0  0  0  0  0
    7.9266    0.5040    0.0000 N   0  0  0  0  0  0  0  0  0  0  0  0
    8.1804    2.9178    0.0000 N   0  0  0  0  0  0  0  0  0  0  0  0
    0.0612   -1.1358    0.0000 C   0  0  0  0  0  0  0  0  0  0  0  0
    0.0612    0.3642    0.0000 C   0  0  0  0  0  0  0  0  0  0  0  0
   -1.3654    0.8276    0.0000 C   0  0  0  0  0  0  0  0  0  0  0  0
   -2.2470   -0.3858    0.0000 C   0  0  0  0  0  0  0  0  0  0  0  0
    1.3603    1.1142    0.0000 C   0  0  0  0  0  0  0  0  0  0  0  0
    2.6594    0.3642    0.0000 C   0  0  0  0  0  0  0  0  0  0  0  0
    1.3603   -1.8858    0.0000 C   0  0  0  0  0  0  0  0  0  0  0  0
   -1.8288   -3.0260    0.0000 C   0  0  0  0  0  0  0  0  0  0  0  0
    2.6594   -1.1358    0.0000 C   0  0  0  0  0  0  0  0  0  0  0  0
    3.9583    1.1142    0.0000 C   0  0  0  0  0  0  0  0  0  0  0  0
   -3.2961   -3.3378    0.0000 C   0  0  0  0  0  0  0  0  0  0  0  0
   -1.8288    2.2542    0.0000 C   0  0  0  0  0  0  0  0  0  0  0  0
   -3.7470   -0.3858    0.0000 C   0  0  0  0  0  0  0  0  0  0  0  0
    6.5564    1.1142    0.0000 C   0  0  0  0  0  0  0  0  0  0  0  0
   -3.7597   -4.7646    0.0000 C   0  0  0  0  0  0  0  0  0  0  0  0
   -4.2999   -2.2231    0.0000 C   0  0  0  0  0  0  0  0  0  0  0  0
    8.9304    1.6187    0.0000 C   0  0  0  0  0  0  0  0  0  0  0  0
   -5.2268   -5.0764    0.0000 C   0  0  0  0  0  0  0  0  0  0  0  0
   -5.7670   -2.5351    0.0000 C   0  0  0  0  0  0  0  0  0  0  0  0
   -6.2306   -3.9617    0.0000 C   0  0  0  0  0  0  0  0  0  0  0  0
  1 16  2  0  0  0  0
  2  7  1  0  0  0  0
  2 10  1  0  0  0  0
  2 14  1  0  0  0  0
  3 16  1  0  0  0  0
  3 20  1  0  0  0  0
  4  6  1  0  0  0  0
  4 20  2  0  0  0  0
  5 20  1  0  0  0  0
  5 23  2  0  0  0  0
  6 23  1  0  0  0  0
  7  8  1  0  0  0  0
  7 13  2  0  0  0  0
  8  9  1  0  0  0  0
  8 11  2  0  0  0  0
  9 10  2  0  0  0  0
  9 18  1  0  0  0  0
 10 19  1  0  0  0  0
 11 12  1  0  0  0  0
 12 15  2  0  0  0  0
 12 16  1  0  0  0  0
 13 15  1  0  0  0  0
 14 17  1  0  0  0  0
 17 21  2  0  0  0  0
 17 22  1  0  0  0  0
 21 24  1  0  0  0  0
 22 25  2  0  0  0  0
 24 26  2  0  0  0  0
 25 26  1  0  0  0  0
M  END
> <Value>
5.899998417198648

> <Relation>
<

> <SourceURI>
mol:CHEMBL1979718

$$$$

Generated by Molecular Materials Informatics

 27 29  0  0  0  0  0  0  0  0999 V2000
   -0.0325   -5.8125    0.0000 O   0  0  0  0  0  0  0  0  0  0  0  0
    5.1636   -5.8125    0.0000 O   0  0  0  0  0  0  0  0  0  0  0  0
   -3.9296   -5.0625    0.0000 N   0  0  0  0  0  0  0  0  0  0  0  0
   -1.3314    3.9375    0.0000 N   0  0  0  0  0  0  0  0  0  0  0  0
    2.5656   -7.3125    0.0000 N   0  0  0  0  0  0  0  0  0  0  0  0
   -2.6305   -2.8125    0.0000 C   0  0  0  0  0  0  0  0  0  0  0  0
   -1.3314   -5.0625    0.0000 C   0  0  0  0  0  0  0  0  0  0  0  0
   -1.3314   -3.5625    0.0000 C   0  0  0  0  0  0  0  0  0  0  0  0
   -3.9296   -3.5625    0.0000 C   0  0  0  0  0  0  0  0  0  0  0  0
   -2.6305   -5.8125    0.0000 C   0  0  0  0  0  0  0  0  0  0  0  0
   -2.6305   -1.3125    0.0000 C   0  0  0  0  0  0  0  0  0  0  0  0
   -1.3314    0.9375    0.0000 C   0  0  0  0  0  0  0  0  0  0  0  0
   -1.3314   -0.5625    0.0000 C   0  0  0  0  0  0  0  0  0  0  0  0
    1.2666   -5.0625    0.0000 C   0  0  0  0  0  0  0  0  0  0  0  0
    2.5656   -5.8125    0.0000 C   0  0  0  0  0  0  0  0  0  0  0  0
    7.7618   -5.8125    0.0000 C   0  0  0  0  0  0  0  0  0  0  0  0
   -0.0325    1.6875    0.0000 C   0  0  0  0  0  0  0  0  0  0  0  0
   -2.6305    1.6875    0.0000 C   0  0  0  0  0  0  0  0  0  0  0  0
    3.8647   -5.0625    0.0000 C   0  0  0  0  0  0  0  0  0  0  0  0
    6.4627   -5.0625    0.0000 C   0  0  0  0  0  0  0  0  0  0  0  0
   -0.0325    3.1875    0.0000 C   0  0  0  0  0  0  0  0  0  0  0  0
   -2.6305    3.1875    0.0000 C   0  0  0  0  0  0  0  0  0  0  0  0
    9.0607   -5.0625    0.0000 C   0  0  0  0  0  0  0  0  0  0  0  0
    7.7618   -7.3125    0.0000 C   0  0  0  0  0  0  0  0  0  0  0  0
   10.3598   -5.8125    0.0000 C   0  0  0  0  0  0  0  0  0  0  0  0
    9.0607   -8.0625    0.0000 C   0  0  0  0  0  0  0  0  0  0  0  0
   10.3598   -7.3125    0.0000 C   0  0  0  0  0  0  0  0  0  0  0  0
  1  7  1  0  0  0  0
  1 14  1  0  0  0  0
  2 19  1  0  0  0  0
  2 20  1  0  0  0  0
  3  9  2  0  0  0  0
  3 10  1  0  0  0  0
  4 21  2  0  0  0  0
  4 22  1  0  0  0  0
  5 15  1  0  0  0  0
  6  8  2  0  0  0  0
  6  9  1  0  0  0  0
 11  6  1  0  0  0  0
  7  8  1  0  0  0  0
  7 10  2  0  0  0  0
 11 13  2  0  0  0  0
 12 13  1  0  0  0  0
 12 17  2  0  0  0  0
 12 18  1  0  0  0  0
 14 15  1  0  0  0  0
 15 19  1  0  0  0  0
 16 20  1  0  0  0  0
 16 23  2  0  0  0  0
 16 24  1  0  0  0  0
 17 21  1  0  0  0  0
 18 22  2  0  0  0  0
 23 25  1  0  0  0  0
 24 26  2  0  0  0  0
 25 27  2  0  0  0  0
 26 27  1  0  0  0  0
M  END
> <Value>
5.899998417198648

> <Relation>
<

> <SourceURI>
mol:CHEMBL1993781

$$$$

Generated by Molecular Materials Informatics

 16 18  0  0  0  0  0  0  0  0999 V2000
   -0.0319    0.9296    0.0000 O   0  0  0  0  0  0  0  0  0  0  0  0
    0.4315   -2.9240    0.0000 N   0  0  0  0  0  0  0  0  0  0  0  0
   -0.4501   -1.7104    0.0000 N   0  0  0  0  0  0  0  0  0  0  0  0
    1.8581   -0.9604    0.0000 C   0  0  0  0  0  0  0  0  0  0  0  0
    3.1571   -0.2104    0.0000 C   0  0  0  0  0  0  0  0  0  0  0  0
    1.8581   -2.4604    0.0000 C   0  0  0  0  0  0  0  0  0  0  0  0
    0.4315   -0.4969    0.0000 C   0  0  0  0  0  0  0  0  0  0  0  0
    3.1571    1.2896    0.0000 C   0  0  0  0  0  0  0  0  0  0  0  0
    4.4562   -0.9604    0.0000 C   0  0  0  0  0  0  0  0  0  0  0  0
    3.1571   -3.2103    0.0000 C   0  0  0  0  0  0  0  0  0  0  0  0
    4.4562   -2.4604    0.0000 C   0  0  0  0  0  0  0  0  0  0  0  0
    1.8581    2.0396    0.0000 C   0  0  0  0  0  0  0  0  0  0  0  0
    4.4562    2.0396    0.0000 C   0  0  0  0  0  0  0  0  0  0  0  0
    1.8581    3.5396    0.0000 C   0  0  0  0  0  0  0  0  0  0  0  0
    4.4562    3.5396    0.0000 C   0  0  0  0  0  0  0  0  0  0  0  0
    3.1571    4.2895    0.0000 C   0  0  0  0  0  0  0  0  0  0  0  0
  1  7  2  0  0  0  0
  2  3  1  0  0  0  0
  2  6  1  0  0  0  0
  3  7  1  0  0  0  0
  4  5  2  0  0  0  0
  4  6  1  0  0  0  0
  4  7  1  0  0  0  0
  5  8  1  0  0  0  0
  5  9  1  0  0  0  0
  6 10  2  0  0  0  0
  8 12  2  0  0  0  0
  8 13  1  0  0  0  0
  9 11  2  0  0  0  0
 10 11  1  0  0  0  0
 12 14  1  0  0  0  0
 13 15  2  0  0  0  0
 14 16  2  0  0  0  0
 15 16  1  0  0  0  0
M  END
> <Value>
4.600000074606178

> <Relation>
<

> <SourceURI>
mol:CHEMBL1989834

$$$$

Generated by Molecular Materials Informatics

 19 21  0  0  0  0  0  0  0  0999 V2000
    7.1481  -11.1259    0.0000 C   0  0  0  0  0  0  0  0  0  0  0  0
    7.1481  -12.6259    0.0000 C   0  0  0  0  0  0  0  0  0  0  0  0
    5.8492  -13.3760    0.0000 C   0  0  0  0  0  0  0  0  0  0  0  0
    5.8492  -10.3759    0.0000 C   0  0  0  0  0  0  0  0  0  0  0  0
    4.5501  -11.1259    0.0000 C   0  0  0  0  0  0  0  0  0  0  0  0
    4.5501  -12.6259    0.0000 C   0  0  0  0  0  0  0  0  0  0  0  0
    3.2510  -13.3760    0.0000 N   0  0  0  0  0  0  0  0  0  0  0  0
    3.2510  -10.3759    0.0000 C   0  0  0  0  0  0  0  0  0  0  0  0
    1.9519  -11.1259    0.0000 C   0  0  0  0  0  0  0  0  0  0  0  0
    1.9519  -12.6259    0.0000 C   0  0  0  0  0  0  0  0  0  0  0  0
    0.5254  -13.0894    0.0000 N   0  0  0  0  0  0  0  0  0  0  0  0
   -0.3563  -11.8759    0.0000 O   0  0  0  0  0  0  0  0  0  0  0  0
    0.5254  -10.6625    0.0000 C   0  0  0  0  0  0  0  0  0  0  0  0
    3.2510   -8.8759    0.0000 O   0  0  0  0  0  0  0  0  0  0  0  0
    0.0619   -9.2358    0.0000 O   0  0  0  0  0  0  0  0  0  0  0  0
    8.4472  -13.3760    0.0000 Cl  0  0  0  0  0  0  0  0  0  0  0  0
    3.2510  -14.8760    0.0000 C   0  0  0  0  0  0  0  0  0  0  0  0
    1.9519  -15.6259    0.0000 C   0  0  0  0  0  0  0  0  0  0  0  0
    8.4472  -10.3759    0.0000 O   0  0  0  0  0  0  0  0  0  0  0  0
  9 10  2  0  0  0  0
  5  4  2  0  0  0  0
  4  1  1  0  0  0  0
  5  6  1  0  0  0  0
  2  3  1  0  0  0  0
 10 11  1  0  0  0  0
 11 12  1  0  0  0  0
 12 13  1  0  0  0  0
 13  9  1  0  0  0  0
  3  6  2  0  0  0  0
  8 14  2  0  0  0  0
  1  2  2  0  0  0  0
 13 15  2  0  0  0  0
  5  8  1  0  0  0  0
  2 16  1  0  0  0  0
  6  7  1  0  0  0  0
  7 17  1  0  0  0  0
  7 10  1  0  0  0  0
 17 18  1  0  0  0  0
  9  8  1  0  0  0  0
  1 19  1  0  0  0  0
M  END
> <Value>
7.50003813440381

> <Relation>
=

> <SourceURI>
mol:CHEMBL523823

$$$$

Generated by Molecular Materials Informatics

 18 20  0  0  0  0  0  0  0  0999 V2000
   -5.6683    1.7017    0.0000 Cl  0  0  0  0  0  0  0  0  0  0  0  0
   -0.4721   -1.2982    0.0000 S   0  0  0  0  0  0  0  0  0  0  0  0
    2.1259   -2.7982    0.0000 O   0  0  0  0  0  0  0  0  0  0  0  0
   -0.4721    1.7017    0.0000 N   0  0  0  0  0  0  0  0  0  0  0  0
    0.8268   -0.5482    0.0000 C   0  0  0  0  0  0  0  0  0  0  0  0
    0.8268    0.9517    0.0000 C   0  0  0  0  0  0  0  0  0  0  0  0
   -1.7712    0.9517    0.0000 C   0  0  0  0  0  0  0  0  0  0  0  0
   -1.7712   -0.5482    0.0000 C   0  0  0  0  0  0  0  0  0  0  0  0
    3.4250    0.9517    0.0000 C   0  0  0  0  0  0  0  0  0  0  0  0
    2.1259   -1.2982    0.0000 C   0  0  0  0  0  0  0  0  0  0  0  0
    2.1259    1.7017    0.0000 C   0  0  0  0  0  0  0  0  0  0  0  0
    3.4250   -0.5482    0.0000 C   0  0  0  0  0  0  0  0  0  0  0  0
   -3.0703    1.7017    0.0000 C   0  0  0  0  0  0  0  0  0  0  0  0
   -3.0703   -1.2982    0.0000 C   0  0  0  0  0  0  0  0  0  0  0  0
   -4.3692    0.9517    0.0000 C   0  0  0  0  0  0  0  0  0  0  0  0
   -4.3692   -0.5482    0.0000 C   0  0  0  0  0  0  0  0  0  0  0  0
    4.2199    2.2237    0.0000 C   0  0  0  0  0  0  0  0  0  0  0  0
    4.9241    1.0041    0.0000 C   0  0  0  0  0  0  0  0  0  0  0  0
  1 15  1  0  0  0  0
  2  5  1  0  0  0  0
  2  8  1  0  0  0  0
  3 10  1  0  0  0  0
  4  6  2  0  0  0  0
  4  7  1  0  0  0  0
  5  6  1  0  0  0  0
  5 10  2  0  0  0  0
  6 11  1  0  0  0  0
  7  8  1  0  0  0  0
  7 13  2  0  0  0  0
  8 14  2  0  0  0  0
  9 11  1  0  0  0  0
  9 12  1  0  0  0  0
  9 17  1  0  0  0  0
  9 18  1  0  0  0  0
 10 12  1  0  0  0  0
 13 15  1  0  0  0  0
 14 16  1  0  0  0  0
 15 16  2  0  0  0  0
M  END
> <Value>
6.199998172182031

> <Relation>
=

> <SourceURI>
mol:CHEMBL1562756

$$$$

Generated by Molecular Materials Informatics

 27 29  0  0  0  0  0  0  0  0999 V2000
   -4.1442   -9.8812    0.0000 F   0  0  0  0  0  0  0  0  0  0  0  0
   -2.6442   -8.3813    0.0000 F   0  0  0  0  0  0  0  0  0  0  0  0
   -5.6442   -8.3813    0.0000 F   0  0  0  0  0  0  0  0  0  0  0  0
   -2.8451   -1.6313    0.0000 O   0  0  0  0  0  0  0  0  0  0  0  0
   -0.2471   -1.6313    0.0000 N   0  0  0  0  0  0  0  0  0  0  0  0
   -2.8451   -6.1312    0.0000 N   0  0  0  0  0  0  0  0  0  0  0  0
   -0.2471    2.8687    0.0000 N   0  0  0  0  0  0  0  0  0  0  0  0
   -1.5462   -3.8813    0.0000 N   0  0  0  0  0  0  0  0  0  0  0  0
    1.0520    0.6188    0.0000 C   0  0  0  0  0  0  0  0  0  0  0  0
   -0.2471   -0.1313    0.0000 C   0  0  0  0  0  0  0  0  0  0  0  0
    1.0520    2.1188    0.0000 C   0  0  0  0  0  0  0  0  0  0  0  0
   -4.1442   -6.8813    0.0000 C   0  0  0  0  0  0  0  0  0  0  0  0
   -4.1442   -8.3813    0.0000 C   0  0  0  0  0  0  0  0  0  0  0  0
    2.3509   -0.1313    0.0000 C   0  0  0  0  0  0  0  0  0  0  0  0
   -2.8451   -4.6312    0.0000 C   0  0  0  0  0  0  0  0  0  0  0  0
    3.6500    0.6188    0.0000 C   0  0  0  0  0  0  0  0  0  0  0  0
   -1.5462   -2.3813    0.0000 C   0  0  0  0  0  0  0  0  0  0  0  0
   -1.5462    0.6188    0.0000 C   0  0  0  0  0  0  0  0  0  0  0  0
    2.3509    2.8687    0.0000 C   0  0  0  0  0  0  0  0  0  0  0  0
   -5.4433   -6.1312    0.0000 C   0  0  0  0  0  0  0  0  0  0  0  0
    3.6500    2.1188    0.0000 C   0  0  0  0  0  0  0  0  0  0  0  0
   -1.5462    2.1188    0.0000 C   0  0  0  0  0  0  0  0  0  0  0  0
   -4.1442   -3.8813    0.0000 C   0  0  0  0  0  0  0  0  0  0  0  0
   -5.4433   -4.6312    0.0000 C   0  0  0  0  0  0  0  0  0  0  0  0
    4.9491   -0.1313    0.0000 C   0  0  0  0  0  0  0  0  0  0  0  0
    6.2482    0.6188    0.0000 C   0  0  0  0  0  0  0  0  0  0  0  0
    6.2482    2.1188    0.0000 C   0  0  0  0  0  0  0  0  0  0  0  0
  1 13  1  0  0  0  0
  2 13  1  0  0  0  0
  3 13  1  0  0  0  0
  4 17  2  0  0  0  0
  5 10  1  0  0  0  0
  5 17  1  0  0  0  0
  6 12  2  0  0  0  0
  6 15  1  0  0  0  0
  7 11  1  0  0  0  0
  7 22  2  0  0  0  0
  8 15  1  0  0  0  0
  8 17  1  0  0  0  0
  9 10  1  0  0  0  0
  9 11  1  0  0  0  0
  9 14  2  0  0  0  0
 10 18  2  0  0  0  0
 11 19  2  0  0  0  0
 12 13  1  0  0  0  0
 12 20  1  0  0  0  0
 14 16  1  0  0  0  0
 15 23  2  0  0  0  0
 16 21  2  0  0  0  0
 16 25  1  0  0  0  0
 18 22  1  0  0  0  0
 19 21  1  0  0  0  0
 20 24  2  0  0  0  0
 23 24  1  0  0  0  0
 25 26  1  0  0  0  0
 26 27  1  0  0  0  0
M  END
> <Value>
5.300000202445418

> <Relation>
<

> <SourceURI>
mol:CHEMBL1987430

$$$$

Generated by Molecular Materials Informatics

 26 29  0  0  0  0  0  0  0  0999 V2000
   12.9793   -7.7367    0.0000 N   0  0  0  0  0  0  0  0  0  0  0  0
   12.9769   -9.2417    0.0000 C   0  0  0  0  0  0  0  0  0  0  0  0
   14.2735   -9.9926    0.0000 N   0  0  0  0  0  0  0  0  0  0  0  0
   15.5814   -9.2408    0.0000 C   0  0  0  0  0  0  0  0  0  0  0  0
   15.5758   -7.7296    0.0000 C   0  0  0  0  0  0  0  0  0  0  0  0
   14.2699   -6.9863    0.0000 C   0  0  0  0  0  0  0  0  0  0  0  0
   16.8813   -9.9895    0.0000 N   0  0  0  0  0  0  0  0  0  0  0  0
   18.1799   -9.2382    0.0000 C   0  0  0  0  0  0  0  0  0  0  0  0
   19.4754   -9.9961    0.0000 C   0  0  0  0  0  0  0  0  0  0  0  0
   20.7730   -9.2462    0.0000 C   0  0  0  0  0  0  0  0  0  0  0  0
   20.7722   -7.7445    0.0000 C   0  0  0  0  0  0  0  0  0  0  0  0
   19.4634   -6.9959    0.0000 C   0  0  0  0  0  0  0  0  0  0  0  0
   18.1710   -7.7502    0.0000 C   0  0  0  0  0  0  0  0  0  0  0  0
   19.4714  -11.4963    0.0000 C   0  0  0  0  0  0  0  0  0  0  0  0
   18.1703  -12.2429    0.0000 O   0  0  0  0  0  0  0  0  0  0  0  0
   20.7684  -12.2498    0.0000 O   0  0  0  0  0  0  0  0  0  0  0  0
   11.6769   -9.9899    0.0000 N   0  0  0  0  0  0  0  0  0  0  0  0
   11.6747  -11.4902    0.0000 C   0  0  0  0  0  0  0  0  0  0  0  0
   10.3719  -12.2327    0.0000 C   0  0  0  0  0  0  0  0  0  0  0  0
   12.9728  -13.7286    0.0000 C   0  0  0  0  0  0  0  0  0  0  0  0
   12.9691  -12.2326    0.0000 C   0  0  0  0  0  0  0  0  0  0  0  0
   11.6683  -14.4850    0.0000 C   0  0  0  0  0  0  0  0  0  0  0  0
   10.3714  -13.7357    0.0000 C   0  0  0  0  0  0  0  0  0  0  0  0
    9.2578  -14.7374    0.0000 N   0  0  0  0  0  0  0  0  0  0  0  0
    9.8664  -16.1062    0.0000 N   0  0  0  0  0  0  0  0  0  0  0  0
   11.3563  -15.9498    0.0000 C   0  0  0  0  0  0  0  0  0  0  0  0
 12 13  2  0  0  0  0
 13  8  1  0  0  0  0
  1  2  2  0  0  0  0
  9 14  1  0  0  0  0
  4  7  1  0  0  0  0
 14 15  1  0  0  0  0
  3  4  2  0  0  0  0
 14 16  2  0  0  0  0
  7  8  1  0  0  0  0
  2 17  1  0  0  0  0
 17 18  1  0  0  0  0
  8  9  2  0  0  0  0
 18 19  2  0  0  0  0
 19 23  1  0  0  0  0
  4  5  1  0  0  0  0
 22 20  1  0  0  0  0
  9 10  1  0  0  0  0
 20 21  2  0  0  0  0
 21 18  1  0  0  0  0
 22 23  2  0  0  0  0
  2  3  1  0  0  0  0
 10 11  2  0  0  0  0
  5  6  2  0  0  0  0
 11 12  1  0  0  0  0
  6  1  1  0  0  0  0
 23 24  1  0  0  0  0
 24 25  1  0  0  0  0
 25 26  2  0  0  0  0
 26 22  1  0  0  0  0
M  END
> <Value>
7.299988937677887

> <Relation>
=

> <SourceURI>
mol:CHEMBL244378

$$$$

Generated by Molecular Materials Informatics

 35 38  0  0  0  0  0  0  0  0999 V2000
   -6.5305   -0.3790    0.0000 F   0  0  0  0  0  0  0  0  0  0  0  0
    4.3759    6.3710    0.0000 F   0  0  0  0  0  0  0  0  0  0  0  0
    2.8759    4.8710    0.0000 F   0  0  0  0  0  0  0  0  0  0  0  0
    5.8759    4.8710    0.0000 F   0  0  0  0  0  0  0  0  0  0  0  0
    3.0768    2.6210    0.0000 O   0  0  0  0  0  0  0  0  0  0  0  0
   -7.3720   -8.5464    0.0000 O   0  0  0  0  0  0  0  0  0  0  0  0
    1.7777   -1.1290    0.0000 N   0  0  0  0  0  0  0  0  0  0  0  0
    0.3511    0.8345    0.0000 N   0  0  0  0  0  0  0  0  0  0  0  0
    4.3759    0.3710    0.0000 N   0  0  0  0  0  0  0  0  0  0  0  0
   -1.5796   -3.3310    0.0000 N   0  0  0  0  0  0  0  0  0  0  0  0
   -1.0394   -5.8722    0.0000 N   0  0  0  0  0  0  0  0  0  0  0  0
   -3.5103   -5.0695    0.0000 N   0  0  0  0  0  0  0  0  0  0  0  0
    0.3511   -1.5926    0.0000 C   0  0  0  0  0  0  0  0  0  0  0  0
   -0.5305   -0.3790    0.0000 C   0  0  0  0  0  0  0  0  0  0  0  0
    1.7777    0.3710    0.0000 C   0  0  0  0  0  0  0  0  0  0  0  0
   -0.1123   -3.0192    0.0000 C   0  0  0  0  0  0  0  0  0  0  0  0
    3.0768    1.1210    0.0000 C   0  0  0  0  0  0  0  0  0  0  0  0
   -2.0305   -0.3790    0.0000 C   0  0  0  0  0  0  0  0  0  0  0  0
    3.0768   -1.8790    0.0000 C   0  0  0  0  0  0  0  0  0  0  0  0
    0.8913   -4.1339    0.0000 C   0  0  0  0  0  0  0  0  0  0  0  0
    4.3759   -1.1290    0.0000 C   0  0  0  0  0  0  0  0  0  0  0  0
   -2.7805   -1.6781    0.0000 C   0  0  0  0  0  0  0  0  0  0  0  0
   -2.7805    0.9199    0.0000 C   0  0  0  0  0  0  0  0  0  0  0  0
   -2.0432   -4.7577    0.0000 C   0  0  0  0  0  0  0  0  0  0  0  0
    0.4277   -5.5604    0.0000 C   0  0  0  0  0  0  0  0  0  0  0  0
   -4.2805   -1.6781    0.0000 C   0  0  0  0  0  0  0  0  0  0  0  0
   -4.2805    0.9199    0.0000 C   0  0  0  0  0  0  0  0  0  0  0  0
    4.3759    3.3710    0.0000 C   0  0  0  0  0  0  0  0  0  0  0  0
   -5.0305   -0.3790    0.0000 C   0  0  0  0  0  0  0  0  0  0  0  0
    4.3759    4.8710    0.0000 C   0  0  0  0  0  0  0  0  0  0  0  0
   -3.9740   -6.4961    0.0000 C   0  0  0  0  0  0  0  0  0  0  0  0
   -5.4410   -6.8079    0.0000 C   0  0  0  0  0  0  0  0  0  0  0  0
   -6.9083   -7.1199    0.0000 C   0  0  0  0  0  0  0  0  0  0  0  0
   -5.7530   -5.3408    0.0000 C   0  0  0  0  0  0  0  0  0  0  0  0
   -5.1292   -8.2752    0.0000 C   0  0  0  0  0  0  0  0  0  0  0  0
  1 29  1  0  0  0  0
  2 30  1  0  0  0  0
  3 30  1  0  0  0  0
  4 30  1  0  0  0  0
  5 17  1  0  0  0  0
  5 28  1  0  0  0  0
  6 33  1  0  0  0  0
  7 13  1  0  0  0  0
  7 15  1  0  0  0  0
  7 19  1  0  0  0  0
  8 14  1  0  0  0  0
  8 15  2  0  0  0  0
  9 17  2  0  0  0  0
  9 21  1  0  0  0  0
 10 16  2  0  0  0  0
 10 24  1  0  0  0  0
 11 24  2  0  0  0  0
 11 25  1  0  0  0  0
 12 24  1  0  0  0  0
 12 31  1  0  0  0  0
 13 14  2  0  0  0  0
 13 16  1  0  0  0  0
 14 18  1  0  0  0  0
 15 17  1  0  0  0  0
 16 20  1  0  0  0  0
 18 22  2  0  0  0  0
 18 23  1  0  0  0  0
 19 21  2  0  0  0  0
 20 25  2  0  0  0  0
 22 26  1  0  0  0  0
 23 27  2  0  0  0  0
 26 29  2  0  0  0  0
 27 29  1  0  0  0  0
 28 30  1  0  0  0  0
 31 32  1  0  0  0  0
 32 33  1  0  0  0  0
 32 34  1  0  0  0  0
 32 35  1  0  0  0  0
M  END
> <Value>
5.899998417198648

> <Relation>
<

> <SourceURI>
mol:CHEMBL2001957

$$$$

Generated by Molecular Materials Informatics

 27 30  0  0  0  0  0  0  0  0999 V2000
   -5.9500    0.2006    0.0000 F   0  0  0  0  0  0  0  0  0  0  0  0
   -6.4045   -2.5723    0.0000 O   0  0  0  0  0  0  0  0  0  0  0  0
    2.3582   -0.5494    0.0000 N   0  0  0  0  0  0  0  0  0  0  0  0
    0.9317    1.4140    0.0000 N   0  0  0  0  0  0  0  0  0  0  0  0
   -0.9991   -2.7514    0.0000 N   0  0  0  0  0  0  0  0  0  0  0  0
    4.9564    0.9506    0.0000 N   0  0  0  0  0  0  0  0  0  0  0  0
   -0.4589   -5.2927    0.0000 N   0  0  0  0  0  0  0  0  0  0  0  0
   -2.9298   -4.4900    0.0000 N   0  0  0  0  0  0  0  0  0  0  0  0
    0.9317   -1.0130    0.0000 C   0  0  0  0  0  0  0  0  0  0  0  0
    0.0500    0.2006    0.0000 C   0  0  0  0  0  0  0  0  0  0  0  0
    2.3582    0.9506    0.0000 C   0  0  0  0  0  0  0  0  0  0  0  0
    0.4682   -2.4396    0.0000 C   0  0  0  0  0  0  0  0  0  0  0  0
   -1.4500    0.2006    0.0000 C   0  0  0  0  0  0  0  0  0  0  0  0
    3.6573   -1.2994    0.0000 C   0  0  0  0  0  0  0  0  0  0  0  0
    3.6573    1.7006    0.0000 C   0  0  0  0  0  0  0  0  0  0  0  0
    1.4719   -3.5543    0.0000 C   0  0  0  0  0  0  0  0  0  0  0  0
   -2.2000   -1.0985    0.0000 C   0  0  0  0  0  0  0  0  0  0  0  0
   -2.2000    1.4995    0.0000 C   0  0  0  0  0  0  0  0  0  0  0  0
   -1.4627   -4.1781    0.0000 C   0  0  0  0  0  0  0  0  0  0  0  0
    4.9564   -0.5494    0.0000 C   0  0  0  0  0  0  0  0  0  0  0  0
    1.0082   -4.9809    0.0000 C   0  0  0  0  0  0  0  0  0  0  0  0
   -3.7000   -1.0985    0.0000 C   0  0  0  0  0  0  0  0  0  0  0  0
   -3.7000    1.4995    0.0000 C   0  0  0  0  0  0  0  0  0  0  0  0
   -4.4500    0.2006    0.0000 C   0  0  0  0  0  0  0  0  0  0  0  0
   -3.9336   -3.3752    0.0000 C   0  0  0  0  0  0  0  0  0  0  0  0
   -5.4007   -3.6871    0.0000 C   0  0  0  0  0  0  0  0  0  0  0  0
   -7.8716   -2.8841    0.0000 C   0  0  0  0  0  0  0  0  0  0  0  0
  1 24  1  0  0  0  0
  2 26  1  0  0  0  0
  2 27  1  0  0  0  0
  3  9  1  0  0  0  0
  3 11  1  0  0  0  0
  3 14  1  0  0  0  0
  4 10  1  0  0  0  0
  4 11  2  0  0  0  0
  5 12  2  0  0  0  0
  5 19  1  0  0  0  0
  6 15  2  0  0  0  0
  6 20  1  0  0  0  0
  7 19  2  0  0  0  0
  7 21  1  0  0  0  0
  8 19  1  0  0  0  0
  8 25  1  0  0  0  0
  9 10  2  0  0  0  0
  9 12  1  0  0  0  0
 10 13  1  0  0  0  0
 11 15  1  0  0  0  0
 12 16  1  0  0  0  0
 13 17  2  0  0  0  0
 13 18  1  0  0  0  0
 14 20  2  0  0  0  0
 16 21  2  0  0  0  0
 17 22  1  0  0  0  0
 18 23  2  0  0  0  0
 22 24  2  0  0  0  0
 23 24  1  0  0  0  0
 25 26  1  0  0  0  0
M  END
> <Value>
5.899998417198648

> <Relation>
<

> <SourceURI>
mol:CHEMBL1969372

$$$$

Generated by Molecular Materials Informatics

 25 28  0  0  0  0  0  0  0  0999 V2000
   -4.6978    2.8801    0.0000 Cl  0  0  0  0  0  0  0  0  0  0  0  0
   -1.6867    6.2243    0.0000 O   0  0  0  0  0  0  0  0  0  0  0  0
   -0.8364   -3.0237    0.0000 N   0  0  0  0  0  0  0  0  0  0  0  0
    1.8893   -3.3102    0.0000 N   0  0  0  0  0  0  0  0  0  0  0  0
   -2.2269    3.6831    0.0000 N   0  0  0  0  0  0  0  0  0  0  0  0
    0.2440    4.4860    0.0000 N   0  0  0  0  0  0  0  0  0  0  0  0
   -0.8364   -0.5968    0.0000 C   0  0  0  0  0  0  0  0  0  0  0  0
    0.5902   -1.0602    0.0000 C   0  0  0  0  0  0  0  0  0  0  0  0
   -1.3000    0.8300    0.0000 C   0  0  0  0  0  0  0  0  0  0  0  0
    0.5902   -2.5602    0.0000 C   0  0  0  0  0  0  0  0  0  0  0  0
   -1.7180   -1.8102    0.0000 C   0  0  0  0  0  0  0  0  0  0  0  0
   -0.2962    1.9447    0.0000 C   0  0  0  0  0  0  0  0  0  0  0  0
   -0.7598    3.3712    0.0000 C   0  0  0  0  0  0  0  0  0  0  0  0
   -2.7671    1.1418    0.0000 C   0  0  0  0  0  0  0  0  0  0  0  0
    1.8893   -0.3102    0.0000 C   0  0  0  0  0  0  0  0  0  0  0  0
   -3.2307    2.5683    0.0000 C   0  0  0  0  0  0  0  0  0  0  0  0
   -0.2196    5.9125    0.0000 C   0  0  0  0  0  0  0  0  0  0  0  0
    3.1882   -1.0602    0.0000 C   0  0  0  0  0  0  0  0  0  0  0  0
    3.1882   -2.5602    0.0000 C   0  0  0  0  0  0  0  0  0  0  0  0
    0.7842    7.0272    0.0000 C   0  0  0  0  0  0  0  0  0  0  0  0
    0.3206    8.4538    0.0000 C   0  0  0  0  0  0  0  0  0  0  0  0
    2.2513    6.7154    0.0000 C   0  0  0  0  0  0  0  0  0  0  0  0
    1.3244    9.5685    0.0000 C   0  0  0  0  0  0  0  0  0  0  0  0
    3.2551    7.8302    0.0000 C   0  0  0  0  0  0  0  0  0  0  0  0
    2.7915    9.2567    0.0000 C   0  0  0  0  0  0  0  0  0  0  0  0
  1 16  1  0  0  0  0
  2 17  2  0  0  0  0
  3 10  1  0  0  0  0
  3 11  1  0  0  0  0
  4 10  2  0  0  0  0
  4 19  1  0  0  0  0
  5 13  2  0  0  0  0
  5 16  1  0  0  0  0
  6 13  1  0  0  0  0
  6 17  1  0  0  0  0
  7  8  1  0  0  0  0
  7  9  1  0  0  0  0
  7 11  2  0  0  0  0
  8 10  1  0  0  0  0
  8 15  2  0  0  0  0
  9 12  2  0  0  0  0
  9 14  1  0  0  0  0
 12 13  1  0  0  0  0
 14 16  2  0  0  0  0
 15 18  1  0  0  0  0
 17 20  1  0  0  0  0
 18 19  2  0  0  0  0
 20 21  2  0  0  0  0
 20 22  1  0  0  0  0
 21 23  1  0  0  0  0
 22 24  2  0  0  0  0
 23 25  2  0  0  0  0
 24 25  1  0  0  0  0
M  END
> <Value>
5.40000018605658

> <Relation>
<

> <SourceURI>
mol:CHEMBL1993413

$$$$

Generated by Molecular Materials Informatics

 30 33  0  0  0  0  0  0  0  0999 V2000
   -7.0676  -11.7876    0.0000 F   0  0  0  0  0  0  0  0  0  0  0  0
    3.0497   -1.6687    0.0000 O   0  0  0  0  0  0  0  0  0  0  0  0
   -3.7463   -5.7692    0.0000 O   0  0  0  0  0  0  0  0  0  0  0  0
    3.9361    2.8362    0.0000 N   0  0  0  0  0  0  0  0  0  0  0  0
    5.2352    3.5862    0.0000 N   0  0  0  0  0  0  0  0  0  0  0  0
    6.5343    1.3362    0.0000 N   0  0  0  0  0  0  0  0  0  0  0  0
    0.5788   -0.8658    0.0000 N   0  0  0  0  0  0  0  0  0  0  0  0
    5.2352   -0.9138    0.0000 N   0  0  0  0  0  0  0  0  0  0  0  0
   -1.2752   -6.5722    0.0000 N   0  0  0  0  0  0  0  0  0  0  0  0
   -3.2061   -8.3107    0.0000 N   0  0  0  0  0  0  0  0  0  0  0  0
    3.9361    1.3362    0.0000 C   0  0  0  0  0  0  0  0  0  0  0  0
    2.5095    0.8726    0.0000 C   0  0  0  0  0  0  0  0  0  0  0  0
    5.2352    0.5862    0.0000 C   0  0  0  0  0  0  0  0  0  0  0  0
    2.0461   -0.5540    0.0000 C   0  0  0  0  0  0  0  0  0  0  0  0
    1.6279    2.0862    0.0000 C   0  0  0  0  0  0  0  0  0  0  0  0
    2.5095    3.2997    0.0000 C   0  0  0  0  0  0  0  0  0  0  0  0
    6.5343    2.8362    0.0000 C   0  0  0  0  0  0  0  0  0  0  0  0
    0.1153   -2.2925    0.0000 C   0  0  0  0  0  0  0  0  0  0  0  0
   -0.8118   -5.1456    0.0000 C   0  0  0  0  0  0  0  0  0  0  0  0
    1.1190   -3.4071    0.0000 C   0  0  0  0  0  0  0  0  0  0  0  0
   -1.3519   -2.6043    0.0000 C   0  0  0  0  0  0  0  0  0  0  0  0
    0.6555   -4.8338    0.0000 C   0  0  0  0  0  0  0  0  0  0  0  0
   -1.8154   -4.0309    0.0000 C   0  0  0  0  0  0  0  0  0  0  0  0
   -2.7425   -6.8840    0.0000 C   0  0  0  0  0  0  0  0  0  0  0  0
   -4.6732   -8.6225    0.0000 C   0  0  0  0  0  0  0  0  0  0  0  0
   -5.1368  -10.0491    0.0000 C   0  0  0  0  0  0  0  0  0  0  0  0
   -6.6039  -10.3609    0.0000 C   0  0  0  0  0  0  0  0  0  0  0  0
   -5.6770   -7.5078    0.0000 C   0  0  0  0  0  0  0  0  0  0  0  0
   -7.6078   -9.2462    0.0000 C   0  0  0  0  0  0  0  0  0  0  0  0
   -7.1441   -7.8196    0.0000 C   0  0  0  0  0  0  0  0  0  0  0  0
  1 27  1  0  0  0  0
  2 14  2  0  0  0  0
  3 24  2  0  0  0  0
  4  5  1  0  0  0  0
  4 11  1  0  0  0  0
  4 16  1  0  0  0  0
  5 17  2  0  0  0  0
  6 13  2  0  0  0  0
  6 17  1  0  0  0  0
  7 14  1  0  0  0  0
  7 18  1  0  0  0  0
  8 13  1  0  0  0  0
  9 19  1  0  0  0  0
  9 24  1  0  0  0  0
 10 24  1  0  0  0  0
 10 25  1  0  0  0  0
 11 12  2  0  0  0  0
 11 13  1  0  0  0  0
 12 14  1  0  0  0  0
 12 15  1  0  0  0  0
 15 16  2  0  0  0  0
 18 20  2  0  0  0  0
 18 21  1  0  0  0  0
 19 22  2  0  0  0  0
 19 23  1  0  0  0  0
 20 22  1  0  0  0  0
 21 23  2  0  0  0  0
 25 26  1  0  0  0  0
 25 28  2  0  0  0  0
 26 27  2  0  0  0  0
 27 29  1  0  0  0  0
 28 30  1  0  0  0  0
 29 30  2  0  0  0  0
M  END
> <Value>
5.899998417198648

> <Relation>
<

> <SourceURI>
mol:CHEMBL1990583

$$$$

Generated by Molecular Materials Informatics

 24 27  0  0  0  0  0  0  0  0999 V2000
   -4.6828    2.7398    0.0000 Cl  0  0  0  0  0  0  0  0  0  0  0  0
   -1.5951   10.0520    0.0000 O   0  0  0  0  0  0  0  0  0  0  0  0
   -0.2811    1.8043    0.0000 N   0  0  0  0  0  0  0  0  0  0  0  0
   -0.8213   -3.1640    0.0000 N   0  0  0  0  0  0  0  0  0  0  0  0
   -2.2118    3.5427    0.0000 N   0  0  0  0  0  0  0  0  0  0  0  0
    1.9043   -3.4506    0.0000 N   0  0  0  0  0  0  0  0  0  0  0  0
    0.2591    4.3456    0.0000 N   0  0  0  0  0  0  0  0  0  0  0  0
   -0.8213   -0.7371    0.0000 C   0  0  0  0  0  0  0  0  0  0  0  0
    0.6053   -1.2006    0.0000 C   0  0  0  0  0  0  0  0  0  0  0  0
   -1.2849    0.6896    0.0000 C   0  0  0  0  0  0  0  0  0  0  0  0
    0.6053   -2.7006    0.0000 C   0  0  0  0  0  0  0  0  0  0  0  0
   -1.7029   -1.9506    0.0000 C   0  0  0  0  0  0  0  0  0  0  0  0
   -0.7448    3.2309    0.0000 C   0  0  0  0  0  0  0  0  0  0  0  0
   -2.7520    1.0014    0.0000 C   0  0  0  0  0  0  0  0  0  0  0  0
   -3.2157    2.4280    0.0000 C   0  0  0  0  0  0  0  0  0  0  0  0
    1.9043   -0.4506    0.0000 C   0  0  0  0  0  0  0  0  0  0  0  0
   -0.2046    5.7722    0.0000 C   0  0  0  0  0  0  0  0  0  0  0  0
    3.2033   -1.2006    0.0000 C   0  0  0  0  0  0  0  0  0  0  0  0
    3.2033   -2.7006    0.0000 C   0  0  0  0  0  0  0  0  0  0  0  0
   -1.6717    6.0840    0.0000 C   0  0  0  0  0  0  0  0  0  0  0  0
    0.7993    6.8869    0.0000 C   0  0  0  0  0  0  0  0  0  0  0  0
   -1.1317    8.6253    0.0000 C   0  0  0  0  0  0  0  0  0  0  0  0
   -2.1353    7.5105    0.0000 C   0  0  0  0  0  0  0  0  0  0  0  0
    0.3356    8.3134    0.0000 C   0  0  0  0  0  0  0  0  0  0  0  0
  1 15  1  0  0  0  0
  2 22  1  0  0  0  0
  3 10  2  0  0  0  0
  3 13  1  0  0  0  0
  4 11  1  0  0  0  0
  4 12  1  0  0  0  0
  5 13  2  0  0  0  0
  5 15  1  0  0  0  0
  6 11  2  0  0  0  0
  6 19  1  0  0  0  0
  7 13  1  0  0  0  0
  7 17  1  0  0  0  0
  8  9  1  0  0  0  0
  8 10  1  0  0  0  0
  8 12  2  0  0  0  0
  9 11  1  0  0  0  0
  9 16  2  0  0  0  0
 10 14  1  0  0  0  0
 14 15  2  0  0  0  0
 16 18  1  0  0  0  0
 17 20  1  0  0  0  0
 17 21  1  0  0  0  0
 18 19  2  0  0  0  0
 20 23  1  0  0  0  0
 21 24  1  0  0  0  0
 22 23  1  0  0  0  0
 22 24  1  0  0  0  0
M  END
> <Value>
7.100015437450609

> <Error>
0.0

> <Relation>
=

> <SourceURI>
mol:CHEMBL1986943

$$$$

Generated by Molecular Materials Informatics

 17 19  0  0  0  0  0  0  0  0999 V2000
    1.2042   -3.1942    0.0000 C   0  0  0  0  0  0  0  0  0  0  0  0
   -0.0779   -3.9552    0.0000 C   0  0  0  0  0  0  0  0  0  0  0  0
    2.5176   -3.9239    0.0000 N   0  0  0  0  0  0  0  0  0  0  0  0
    1.2042   -1.6932    0.0000 N   0  0  0  0  0  0  0  0  0  0  0  0
    1.2250   -6.2067    0.0000 N   0  0  0  0  0  0  0  0  0  0  0  0
    2.5176   -5.4457    0.0000 C   0  0  0  0  0  0  0  0  0  0  0  0
   -0.0779   -5.4562    0.0000 C   0  0  0  0  0  0  0  0  0  0  0  0
    2.4863   -0.9219    0.0000 C   0  0  0  0  0  0  0  0  0  0  0  0
   -1.3913   -3.2047    0.0000 C   0  0  0  0  0  0  0  0  0  0  0  0
   -1.3913   -6.2067    0.0000 C   0  0  0  0  0  0  0  0  0  0  0  0
    2.4863    0.5583    0.0000 C   0  0  0  0  0  0  0  0  0  0  0  0
    3.7892   -1.6724    0.0000 C   0  0  0  0  0  0  0  0  0  0  0  0
   -2.6734   -3.9552    0.0000 C   0  0  0  0  0  0  0  0  0  0  0  0
   -2.6734   -5.4562    0.0000 C   0  0  0  0  0  0  0  0  0  0  0  0
    5.0818   -0.9219    0.0000 C   0  0  0  0  0  0  0  0  0  0  0  0
    3.7892    1.2983    0.0000 C   0  0  0  0  0  0  0  0  0  0  0  0
    5.0818    0.5583    0.0000 C   0  0  0  0  0  0  0  0  0  0  0  0
  2  1  1  0  0  0  0
  3  1  2  0  0  0  0
  4  1  1  0  0  0  0
  5  6  2  0  0  0  0
  6  3  1  0  0  0  0
  7  2  1  0  0  0  0
  8  4  1  0  0  0  0
  9  2  2  0  0  0  0
 10  7  2  0  0  0  0
 11  8  1  0  0  0  0
 12  8  2  0  0  0  0
 13  9  1  0  0  0  0
 14 13  2  0  0  0  0
 15 12  1  0  0  0  0
 16 11  2  0  0  0  0
 17 15  2  0  0  0  0
  7  5  1  0  0  0  0
 10 14  1  0  0  0  0
 17 16  1  0  0  0  0
M  END
> <Value>
4.200000030616179

> <Relation>
=

> <SourceURI>
mol:CHEMBL289959

$$$$

Generated by Molecular Materials Informatics

 23 25  0  0  0  0  0  0  0  0999 V2000
    4.4492   -1.6202    0.0000 S   0  0  0  0  0  0  0  0  0  0  0  0
    3.6992   -0.3211    0.0000 O   0  0  0  0  0  0  0  0  0  0  0  0
    5.1992   -2.9192    0.0000 O   0  0  0  0  0  0  0  0  0  0  0  0
    3.1502   -2.3702    0.0000 N   0  0  0  0  0  0  0  0  0  0  0  0
   -2.0458   -2.3702    0.0000 N   0  0  0  0  0  0  0  0  0  0  0  0
   -2.0458    0.6298    0.0000 N   0  0  0  0  0  0  0  0  0  0  0  0
    9.6451    1.3797    0.0000 N   0  0  0  0  0  0  0  0  0  0  0  0
   -0.7468   -1.6202    0.0000 C   0  0  0  0  0  0  0  0  0  0  0  0
   -0.7468   -0.1202    0.0000 C   0  0  0  0  0  0  0  0  0  0  0  0
    1.8511   -1.6202    0.0000 C   0  0  0  0  0  0  0  0  0  0  0  0
    5.7481   -0.8702    0.0000 C   0  0  0  0  0  0  0  0  0  0  0  0
    0.5521   -2.3702    0.0000 C   0  0  0  0  0  0  0  0  0  0  0  0
    0.5521    0.6298    0.0000 C   0  0  0  0  0  0  0  0  0  0  0  0
    1.8511   -0.1202    0.0000 C   0  0  0  0  0  0  0  0  0  0  0  0
   -3.3449   -1.6202    0.0000 C   0  0  0  0  0  0  0  0  0  0  0  0
   -3.3449   -0.1202    0.0000 C   0  0  0  0  0  0  0  0  0  0  0  0
    5.7481    0.6298    0.0000 C   0  0  0  0  0  0  0  0  0  0  0  0
    7.0471   -1.6202    0.0000 C   0  0  0  0  0  0  0  0  0  0  0  0
    8.3462    0.6298    0.0000 C   0  0  0  0  0  0  0  0  0  0  0  0
    7.0471    1.3797    0.0000 C   0  0  0  0  0  0  0  0  0  0  0  0
    8.3462   -0.8702    0.0000 C   0  0  0  0  0  0  0  0  0  0  0  0
   -4.6438   -2.3702    0.0000 C   0  0  0  0  0  0  0  0  0  0  0  0
   -4.6438    0.6298    0.0000 C   0  0  0  0  0  0  0  0  0  0  0  0
  1  2  2  0  0  0  0
  1  3  2  0  0  0  0
  1  4  1  0  0  0  0
  1 11  1  0  0  0  0
  4 10  1  0  0  0  0
  5  8  1  0  0  0  0
  5 15  2  0  0  0  0
  6  9  1  0  0  0  0
  6 16  2  0  0  0  0
  7 19  1  0  0  0  0
  8  9  1  0  0  0  0
  8 12  2  0  0  0  0
  9 13  2  0  0  0  0
 10 12  1  0  0  0  0
 10 14  2  0  0  0  0
 11 17  2  0  0  0  0
 11 18  1  0  0  0  0
 13 14  1  0  0  0  0
 15 16  1  0  0  0  0
 15 22  1  0  0  0  0
 16 23  1  0  0  0  0
 17 20  1  0  0  0  0
 18 21  2  0  0  0  0
 19 20  2  0  0  0  0
 19 21  1  0  0  0  0
M  END
> <Value>
5.899998417198648

> <Relation>
<

> <SourceURI>
mol:CHEMBL2006263

$$$$

Generated by Molecular Materials Informatics

 28 31  0  0  0  0  0  0  0  0999 V2000
   -3.5030   -2.3834    0.0000 O   0  0  0  0  0  0  0  0  0  0  0  0
   -2.5761    0.4698    0.0000 O   0  0  0  0  0  0  0  0  0  0  0  0
    0.3585    3.5206    0.0000 N   0  0  0  0  0  0  0  0  0  0  0  0
   -5.8973   -5.5483    0.0000 N   0  0  0  0  0  0  0  0  0  0  0  0
    0.1249  -12.2367    0.0000 N   0  0  0  0  0  0  0  0  0  0  0  0
    1.7850    1.5571    0.0000 C   0  0  0  0  0  0  0  0  0  0  0  0
    0.3585    1.0935    0.0000 C   0  0  0  0  0  0  0  0  0  0  0  0
    1.7850    3.0571    0.0000 C   0  0  0  0  0  0  0  0  0  0  0  0
   -0.5231    2.3071    0.0000 C   0  0  0  0  0  0  0  0  0  0  0  0
    3.0841    0.8071    0.0000 C   0  0  0  0  0  0  0  0  0  0  0  0
   -0.1050   -0.3331    0.0000 C   0  0  0  0  0  0  0  0  0  0  0  0
    3.0841    3.8071    0.0000 C   0  0  0  0  0  0  0  0  0  0  0  0
   -1.5722   -0.6449    0.0000 C   0  0  0  0  0  0  0  0  0  0  0  0
    4.3832    1.5571    0.0000 C   0  0  0  0  0  0  0  0  0  0  0  0
    4.3832    3.0571    0.0000 C   0  0  0  0  0  0  0  0  0  0  0  0
   -3.9666   -3.8100    0.0000 C   0  0  0  0  0  0  0  0  0  0  0  0
   -3.4264   -6.3512    0.0000 C   0  0  0  0  0  0  0  0  0  0  0  0
   -2.0359   -2.0716    0.0000 C   0  0  0  0  0  0  0  0  0  0  0  0
   -2.9628   -4.9247    0.0000 C   0  0  0  0  0  0  0  0  0  0  0  0
   -5.4337   -4.1218    0.0000 C   0  0  0  0  0  0  0  0  0  0  0  0
   -4.8935   -6.6631    0.0000 C   0  0  0  0  0  0  0  0  0  0  0  0
   -2.4226   -7.4660    0.0000 C   0  0  0  0  0  0  0  0  0  0  0  0
   -1.8824  -10.0072    0.0000 C   0  0  0  0  0  0  0  0  0  0  0  0
   -2.8862   -8.8925    0.0000 C   0  0  0  0  0  0  0  0  0  0  0  0
   -2.3461  -11.4338    0.0000 C   0  0  0  0  0  0  0  0  0  0  0  0
   -0.4153   -9.6954    0.0000 C   0  0  0  0  0  0  0  0  0  0  0  0
   -1.3424  -12.5485    0.0000 C   0  0  0  0  0  0  0  0  0  0  0  0
    0.5885  -10.8102    0.0000 C   0  0  0  0  0  0  0  0  0  0  0  0
  1 16  1  0  0  0  0
  1 18  1  0  0  0  0
  2 13  1  0  0  0  0
  3  8  1  0  0  0  0
  3  9  1  0  0  0  0
  4 20  1  0  0  0  0
  4 21  2  0  0  0  0
  5 27  2  0  0  0  0
  5 28  1  0  0  0  0
  6  7  1  0  0  0  0
  6  8  1  0  0  0  0
  6 10  2  0  0  0  0
  7  9  2  0  0  0  0
  7 11  1  0  0  0  0
  8 12  2  0  0  0  0
 10 14  1  0  0  0  0
 11 13  1  0  0  0  0
 12 15  1  0  0  0  0
 13 18  1  0  0  0  0
 14 15  2  0  0  0  0
 16 19  1  0  0  0  0
 16 20  2  0  0  0  0
 17 19  2  0  0  0  0
 17 21  1  0  0  0  0
 22 17  1  0  0  0  0
 22 24  2  0  0  0  0
 23 24  1  0  0  0  0
 23 25  2  0  0  0  0
 23 26  1  0  0  0  0
 25 27  1  0  0  0  0
 26 28  2  0  0  0  0
M  END
> <Value>
5.899998417198648

> <Relation>
<

> <SourceURI>
mol:CHEMBL1993584

$$$$

Generated by Molecular Materials Informatics

 16 17  0  0  0  0  0  0  0  0999 V2000
   -0.2164   -0.7576    0.0000 S   0  0  0  0  0  0  0  0  0  0  0  0
    4.9637    4.4340    0.0000 O   0  0  0  0  0  0  0  0  0  0  0  0
    3.3528   -2.2830    0.0000 N   0  0  0  0  0  0  0  0  0  0  0  0
    4.9637   -0.0658    0.0000 N   0  0  0  0  0  0  0  0  0  0  0  0
    3.6646    2.1841    0.0000 N   0  0  0  0  0  0  0  0  0  0  0  0
    1.0665    2.1841    0.0000 N   0  0  0  0  0  0  0  0  0  0  0  0
    2.3656   -0.0658    0.0000 C   0  0  0  0  0  0  0  0  0  0  0  0
    3.6646   -0.8158    0.0000 C   0  0  0  0  0  0  0  0  0  0  0  0
    1.2509   -1.0694    0.0000 C   0  0  0  0  0  0  0  0  0  0  0  0
    2.3656    1.4341    0.0000 C   0  0  0  0  0  0  0  0  0  0  0  0
    1.8610   -2.4397    0.0000 C   0  0  0  0  0  0  0  0  0  0  0  0
    4.9637    1.4341    0.0000 C   0  0  0  0  0  0  0  0  0  0  0  0
    1.0665    3.6841    0.0000 C   0  0  0  0  0  0  0  0  0  0  0  0
   -1.2200   -1.8723    0.0000 C   0  0  0  0  0  0  0  0  0  0  0  0
    2.3656    4.4340    0.0000 C   0  0  0  0  0  0  0  0  0  0  0  0
    3.6646    3.6841    0.0000 C   0  0  0  0  0  0  0  0  0  0  0  0
  1  9  1  0  0  0  0
  1 14  1  0  0  0  0
  2 16  1  0  0  0  0
  3  8  1  0  0  0  0
  3 11  1  0  0  0  0
  4  8  2  0  0  0  0
  4 12  1  0  0  0  0
  5 10  1  0  0  0  0
  5 12  2  0  0  0  0
  6 10  1  0  0  0  0
  6 13  1  0  0  0  0
  7  8  1  0  0  0  0
  7  9  1  0  0  0  0
  7 10  2  0  0  0  0
  9 11  2  0  0  0  0
 13 15  1  0  0  0  0
 15 16  1  0  0  0  0
M  END
> <Value>
5.899998417198648

> <Relation>
<

> <SourceURI>
mol:CHEMBL2000114

$$$$

Generated by Molecular Materials Informatics

 26 27  0  0  0  0  0  0  0  0999 V2000
    0.4816    0.3384    0.0000 C   0  0  0  0  0  0  0  0  0  0  0  0
    0.4790   -1.1661    0.0000 C   0  0  0  0  0  0  0  0  0  0  0  0
    1.7756   -1.9170    0.0000 N   0  0  0  0  0  0  0  0  0  0  0  0
    3.0832   -1.1654    0.0000 C   0  0  0  0  0  0  0  0  0  0  0  0
    3.0776    0.3459    0.0000 C   0  0  0  0  0  0  0  0  0  0  0  0
    1.7720    1.0890    0.0000 C   0  0  0  0  0  0  0  0  0  0  0  0
   -0.8210   -1.9143    0.0000 N   0  0  0  0  0  0  0  0  0  0  0  0
    4.3729    1.1023    0.0000 C   0  0  0  0  0  0  0  0  0  0  0  0
    5.6592    1.8634    0.0000 N   0  0  0  0  0  0  0  0  0  0  0  0
    4.3831   -1.9141    0.0000 O   0  0  0  0  0  0  0  0  0  0  0  0
    5.6812   -1.1630    0.0000 C   0  0  0  0  0  0  0  0  0  0  0  0
    6.9811   -1.9117    0.0000 C   0  0  0  0  0  0  0  0  0  0  0  0
    1.7647    2.5890    0.0000 N   0  0  0  0  0  0  0  0  0  0  0  0
   -2.1190   -1.1625    0.0000 C   0  0  0  0  0  0  0  0  0  0  0  0
   -2.1166    0.3375    0.0000 O   0  0  0  0  0  0  0  0  0  0  0  0
   -3.4192   -1.9105    0.0000 C   0  0  0  0  0  0  0  0  0  0  0  0
   -4.7172   -1.1588    0.0000 C   0  0  0  0  0  0  0  0  0  0  0  0
   -4.7112    0.3383    0.0000 C   0  0  0  0  0  0  0  0  0  0  0  0
   -6.0075    1.0901    0.0000 C   0  0  0  0  0  0  0  0  0  0  0  0
   -7.3094    0.3419    0.0000 C   0  0  0  0  0  0  0  0  0  0  0  0
   -7.3066   -1.1659    0.0000 C   0  0  0  0  0  0  0  0  0  0  0  0
   -6.0094   -1.9110    0.0000 C   0  0  0  0  0  0  0  0  0  0  0  0
   -6.0046   -3.4110    0.0000 O   0  0  0  0  0  0  0  0  0  0  0  0
   -7.3016   -4.1647    0.0000 C   0  0  0  0  0  0  0  0  0  0  0  0
   -6.0045    2.5901    0.0000 O   0  0  0  0  0  0  0  0  0  0  0  0
   -4.7041    3.3374    0.0000 C   0  0  0  0  0  0  0  0  0  0  0  0
  6 13  1  0  0  0  0
  1  2  2  0  0  0  0
  7 14  1  0  0  0  0
  2  7  1  0  0  0  0
 14 15  2  0  0  0  0
  3  4  2  0  0  0  0
 14 16  1  0  0  0  0
  5  8  1  0  0  0  0
 16 17  1  0  0  0  0
 17 18  2  0  0  0  0
  8  9  3  0  0  0  0
 18 19  1  0  0  0  0
  4  5  1  0  0  0  0
 19 20  2  0  0  0  0
  4 10  1  0  0  0  0
 20 21  1  0  0  0  0
  2  3  1  0  0  0  0
 21 22  2  0  0  0  0
 22 17  1  0  0  0  0
 10 11  1  0  0  0  0
 22 23  1  0  0  0  0
  5  6  2  0  0  0  0
 23 24  1  0  0  0  0
 11 12  1  0  0  0  0
 19 25  1  0  0  0  0
  6  1  1  0  0  0  0
 25 26  1  0  0  0  0
M  END
> <Value>
5.899998417198648

> <Relation>
<

> <SourceURI>
mol:CHEMBL210618

$$$$

Generated by Molecular Materials Informatics

 27 29  0  0  0  0  0  0  0  0999 V2000
   -4.3715    3.9877    0.0000 Cl  0  0  0  0  0  0  0  0  0  0  0  0
   -9.5677   15.9877    0.0000 F   0  0  0  0  0  0  0  0  0  0  0  0
  -11.0677   14.4877    0.0000 F   0  0  0  0  0  0  0  0  0  0  0  0
   -8.0677   14.4877    0.0000 F   0  0  0  0  0  0  0  0  0  0  0  0
   -6.9695    8.4877    0.0000 O   0  0  0  0  0  0  0  0  0  0  0  0
   -0.4744   -0.3835    0.0000 O   0  0  0  0  0  0  0  0  0  0  0  0
   -3.0724   -0.3835    0.0000 O   0  0  0  0  0  0  0  0  0  0  0  0
   -1.7735    3.9877    0.0000 N   0  0  0  0  0  0  0  0  0  0  0  0
   -1.7735    1.8665    0.0000 C   0  0  0  0  0  0  0  0  0  0  0  0
   -3.0724    6.2377    0.0000 C   0  0  0  0  0  0  0  0  0  0  0  0
   -0.7128    2.9272    0.0000 C   0  0  0  0  0  0  0  0  0  0  0  0
   -2.8341    2.9272    0.0000 C   0  0  0  0  0  0  0  0  0  0  0  0
   -1.7735    5.4877    0.0000 C   0  0  0  0  0  0  0  0  0  0  0  0
   -4.3715    5.4877    0.0000 C   0  0  0  0  0  0  0  0  0  0  0  0
   -9.5677   12.9877    0.0000 C   0  0  0  0  0  0  0  0  0  0  0  0
   -9.5677   14.4877    0.0000 C   0  0  0  0  0  0  0  0  0  0  0  0
   -5.6706    7.7377    0.0000 C   0  0  0  0  0  0  0  0  0  0  0  0
   -8.2686   10.7377    0.0000 C   0  0  0  0  0  0  0  0  0  0  0  0
   -5.6706    6.2377    0.0000 C   0  0  0  0  0  0  0  0  0  0  0  0
   -3.0724    7.7377    0.0000 C   0  0  0  0  0  0  0  0  0  0  0  0
   -8.2686   12.2377    0.0000 C   0  0  0  0  0  0  0  0  0  0  0  0
   -1.7735    0.3665    0.0000 C   0  0  0  0  0  0  0  0  0  0  0  0
   -4.3715    8.4877    0.0000 C   0  0  0  0  0  0  0  0  0  0  0  0
  -10.8668   12.2377    0.0000 C   0  0  0  0  0  0  0  0  0  0  0  0
   -6.9695    9.9877    0.0000 C   0  0  0  0  0  0  0  0  0  0  0  0
   -9.5677    9.9877    0.0000 C   0  0  0  0  0  0  0  0  0  0  0  0
  -10.8668   10.7377    0.0000 C   0  0  0  0  0  0  0  0  0  0  0  0
  1 14  1  0  0  0  0
  2 16  1  0  0  0  0
  3 16  1  0  0  0  0
  4 16  1  0  0  0  0
  5 17  1  0  0  0  0
  5 25  1  0  0  0  0
  6 22  2  0  0  0  0
  7 22  1  0  0  0  0
  8 11  1  0  0  0  0
  8 12  1  0  0  0  0
  8 13  1  0  0  0  0
  9 11  1  0  0  0  0
  9 12  1  0  0  0  0
  9 22  1  0  0  0  0
 10 13  1  0  0  0  0
 10 14  1  0  0  0  0
 10 20  2  0  0  0  0
 14 19  2  0  0  0  0
 15 16  1  0  0  0  0
 15 21  2  0  0  0  0
 15 24  1  0  0  0  0
 17 19  1  0  0  0  0
 17 23  2  0  0  0  0
 18 21  1  0  0  0  0
 18 25  1  0  0  0  0
 18 26  2  0  0  0  0
 20 23  1  0  0  0  0
 24 27  2  0  0  0  0
 26 27  1  0  0  0  0
M  END
> <Value>
5.300000202445418

> <Relation>
<

> <SourceURI>
mol:CHEMBL1986265

$$$$

Generated by Molecular Materials Informatics

 27 29  0  0  0  0  0  0  0  0999 V2000
   -4.7401    2.3785    0.0000 Cl  0  0  0  0  0  0  0  0  0  0  0  0
    2.2859   10.1818    0.0000 S   0  0  0  0  0  0  0  0  0  0  0  0
    3.2895   11.2965    0.0000 O   0  0  0  0  0  0  0  0  0  0  0  0
    1.1711   11.1854    0.0000 O   0  0  0  0  0  0  0  0  0  0  0  0
   -0.8786   -3.5255    0.0000 N   0  0  0  0  0  0  0  0  0  0  0  0
    1.8471   -3.8120    0.0000 N   0  0  0  0  0  0  0  0  0  0  0  0
   -2.2691    3.1814    0.0000 N   0  0  0  0  0  0  0  0  0  0  0  0
    0.2018    3.9843    0.0000 N   0  0  0  0  0  0  0  0  0  0  0  0
    1.2822    9.0670    0.0000 N   0  0  0  0  0  0  0  0  0  0  0  0
   -0.8786   -1.0985    0.0000 C   0  0  0  0  0  0  0  0  0  0  0  0
    0.5480   -1.5620    0.0000 C   0  0  0  0  0  0  0  0  0  0  0  0
   -1.3422    0.3283    0.0000 C   0  0  0  0  0  0  0  0  0  0  0  0
    0.5480   -3.0620    0.0000 C   0  0  0  0  0  0  0  0  0  0  0  0
   -1.7602   -2.3120    0.0000 C   0  0  0  0  0  0  0  0  0  0  0  0
   -0.3384    1.4430    0.0000 C   0  0  0  0  0  0  0  0  0  0  0  0
   -0.8020    2.8696    0.0000 C   0  0  0  0  0  0  0  0  0  0  0  0
   -2.8093    0.6401    0.0000 C   0  0  0  0  0  0  0  0  0  0  0  0
    1.8471   -0.8119    0.0000 C   0  0  0  0  0  0  0  0  0  0  0  0
   -3.2730    2.0667    0.0000 C   0  0  0  0  0  0  0  0  0  0  0  0
    0.7420    6.5257    0.0000 C   0  0  0  0  0  0  0  0  0  0  0  0
    3.1461   -1.5620    0.0000 C   0  0  0  0  0  0  0  0  0  0  0  0
    3.1461   -3.0620    0.0000 C   0  0  0  0  0  0  0  0  0  0  0  0
   -0.2618    5.4109    0.0000 C   0  0  0  0  0  0  0  0  0  0  0  0
    1.7457    7.6404    0.0000 C   0  0  0  0  0  0  0  0  0  0  0  0
   -0.3727    7.5293    0.0000 C   0  0  0  0  0  0  0  0  0  0  0  0
    1.8568    5.5220    0.0000 C   0  0  0  0  0  0  0  0  0  0  0  0
    3.4006    9.1781    0.0000 C   0  0  0  0  0  0  0  0  0  0  0  0
  1 19  1  0  0  0  0
  2  3  2  0  0  0  0
  2  4  2  0  0  0  0
  2  9  1  0  0  0  0
  2 27  1  0  0  0  0
  5 13  1  0  0  0  0
  5 14  1  0  0  0  0
  6 13  2  0  0  0  0
  6 22  1  0  0  0  0
  7 16  1  0  0  0  0
  7 19  2  0  0  0  0
  8 16  1  0  0  0  0
  8 23  1  0  0  0  0
  9 24  1  0  0  0  0
 10 11  1  0  0  0  0
 10 12  1  0  0  0  0
 10 14  2  0  0  0  0
 11 13  1  0  0  0  0
 11 18  2  0  0  0  0
 12 15  1  0  0  0  0
 12 17  2  0  0  0  0
 15 16  2  0  0  0  0
 17 19  1  0  0  0  0
 18 21  1  0  0  0  0
 20 23  1  0  0  0  0
 20 24  1  0  0  0  0
 20 25  1  0  0  0  0
 20 26  1  0  0  0  0
 21 22  2  0  0  0  0
M  END
> <Value>
7.199970640755866

> <Relation>
=

> <SourceURI>
mol:CHEMBL1971172

$$$$

Generated by Molecular Materials Informatics

 21 23  0  0  0  0  0  0  0  0999 V2000
    2.8903    3.3562    0.0000 F   0  0  0  0  0  0  0  0  0  0  0  0
   -2.3057   -2.6437    0.0000 O   0  0  0  0  0  0  0  0  0  0  0  0
    0.2923   -2.6437    0.0000 N   0  0  0  0  0  0  0  0  0  0  0  0
    0.2923    1.8562    0.0000 N   0  0  0  0  0  0  0  0  0  0  0  0
   -1.0068   -4.8938    0.0000 N   0  0  0  0  0  0  0  0  0  0  0  0
   -3.6048   -4.8938    0.0000 N   0  0  0  0  0  0  0  0  0  0  0  0
   -3.6048   -7.8938    0.0000 N   0  0  0  0  0  0  0  0  0  0  0  0
    1.5914   -0.3937    0.0000 C   0  0  0  0  0  0  0  0  0  0  0  0
    1.5914    1.1063    0.0000 C   0  0  0  0  0  0  0  0  0  0  0  0
    0.2923   -1.1437    0.0000 C   0  0  0  0  0  0  0  0  0  0  0  0
    2.8903    1.8562    0.0000 C   0  0  0  0  0  0  0  0  0  0  0  0
    2.8903   -1.1437    0.0000 C   0  0  0  0  0  0  0  0  0  0  0  0
   -1.0068   -0.3937    0.0000 C   0  0  0  0  0  0  0  0  0  0  0  0
   -1.0068   -3.3937    0.0000 C   0  0  0  0  0  0  0  0  0  0  0  0
   -1.0068    1.1063    0.0000 C   0  0  0  0  0  0  0  0  0  0  0  0
    4.1894    1.1063    0.0000 C   0  0  0  0  0  0  0  0  0  0  0  0
    4.1894   -0.3937    0.0000 C   0  0  0  0  0  0  0  0  0  0  0  0
   -2.3057   -5.6437    0.0000 C   0  0  0  0  0  0  0  0  0  0  0  0
   -2.3057   -7.1437    0.0000 C   0  0  0  0  0  0  0  0  0  0  0  0
   -4.9039   -5.6437    0.0000 C   0  0  0  0  0  0  0  0  0  0  0  0
   -4.9039   -7.1437    0.0000 C   0  0  0  0  0  0  0  0  0  0  0  0
  1 11  1  0  0  0  0
  2 14  2  0  0  0  0
  3 10  1  0  0  0  0
  3 14  1  0  0  0  0
  4  9  2  0  0  0  0
  4 15  1  0  0  0  0
  5 14  1  0  0  0  0
  5 18  1  0  0  0  0
  6 18  1  0  0  0  0
  6 20  2  0  0  0  0
  7 19  1  0  0  0  0
  7 21  2  0  0  0  0
  8  9  1  0  0  0  0
  8 10  2  0  0  0  0
  8 12  1  0  0  0  0
  9 11  1  0  0  0  0
 10 13  1  0  0  0  0
 11 16  2  0  0  0  0
 12 17  2  0  0  0  0
 13 15  2  0  0  0  0
 16 17  1  0  0  0  0
 18 19  2  0  0  0  0
 20 21  1  0  0  0  0
M  END
> <Value>
5.899998417198648

> <Relation>
<

> <SourceURI>
mol:CHEMBL1975647

$$$$

Generated by Molecular Materials Informatics

 38 42  0  0  0  0  0  0  0  0999 V2000
   -4.4816    4.4437    0.0000 O   0  0  0  0  0  0  0  0  0  0  0  0
    5.9107   -0.0562    0.0000 O   0  0  0  0  0  0  0  0  0  0  0  0
    4.6116   -5.3062    0.0000 O   0  0  0  0  0  0  0  0  0  0  0  0
   -1.8836    1.4437    0.0000 N   0  0  0  0  0  0  0  0  0  0  0  0
   -1.8836    4.4437    0.0000 N   0  0  0  0  0  0  0  0  0  0  0  0
    0.7145    1.4437    0.0000 N   0  0  0  0  0  0  0  0  0  0  0  0
    2.0134    3.6937    0.0000 N   0  0  0  0  0  0  0  0  0  0  0  0
    3.3125    1.4437    0.0000 N   0  0  0  0  0  0  0  0  0  0  0  0
    2.0134   -5.3062    0.0000 N   0  0  0  0  0  0  0  0  0  0  0  0
    2.0134   -9.8062    0.0000 N   0  0  0  0  0  0  0  0  0  0  0  0
   -0.5845    2.1937    0.0000 C   0  0  0  0  0  0  0  0  0  0  0  0
   -0.5845    3.6937    0.0000 C   0  0  0  0  0  0  0  0  0  0  0  0
   -3.1825    2.1937    0.0000 C   0  0  0  0  0  0  0  0  0  0  0  0
   -3.1825    3.6937    0.0000 C   0  0  0  0  0  0  0  0  0  0  0  0
   -1.8836   -0.0562    0.0000 C   0  0  0  0  0  0  0  0  0  0  0  0
    2.0134    2.1937    0.0000 C   0  0  0  0  0  0  0  0  0  0  0  0
    0.7145    4.4437    0.0000 C   0  0  0  0  0  0  0  0  0  0  0  0
   -4.4816    1.4437    0.0000 C   0  0  0  0  0  0  0  0  0  0  0  0
   -0.6700   -0.9379    0.0000 C   0  0  0  0  0  0  0  0  0  0  0  0
   -3.0971   -0.9379    0.0000 C   0  0  0  0  0  0  0  0  0  0  0  0
    3.3125   -0.0562    0.0000 C   0  0  0  0  0  0  0  0  0  0  0  0
   -1.8836    5.9437    0.0000 C   0  0  0  0  0  0  0  0  0  0  0  0
    4.6116   -0.8062    0.0000 C   0  0  0  0  0  0  0  0  0  0  0  0
   -1.1336   -2.3644    0.0000 C   0  0  0  0  0  0  0  0  0  0  0  0
   -2.6336   -2.3644    0.0000 C   0  0  0  0  0  0  0  0  0  0  0  0
    3.3125   -3.0563    0.0000 C   0  0  0  0  0  0  0  0  0  0  0  0
    2.0134   -0.8062    0.0000 C   0  0  0  0  0  0  0  0  0  0  0  0
    4.6116   -2.3062    0.0000 C   0  0  0  0  0  0  0  0  0  0  0  0
    2.0134   -2.3062    0.0000 C   0  0  0  0  0  0  0  0  0  0  0  0
   -5.7807    2.1937    0.0000 C   0  0  0  0  0  0  0  0  0  0  0  0
    3.3125   -4.5563    0.0000 C   0  0  0  0  0  0  0  0  0  0  0  0
    2.0134   -6.8062    0.0000 C   0  0  0  0  0  0  0  0  0  0  0  0
    0.7145   -7.5563    0.0000 C   0  0  0  0  0  0  0  0  0  0  0  0
    3.3125   -7.5563    0.0000 C   0  0  0  0  0  0  0  0  0  0  0  0
    7.2096   -0.8062    0.0000 C   0  0  0  0  0  0  0  0  0  0  0  0
    0.7145   -9.0562    0.0000 C   0  0  0  0  0  0  0  0  0  0  0  0
    3.3125   -9.0562    0.0000 C   0  0  0  0  0  0  0  0  0  0  0  0
    2.0134  -11.3062    0.0000 C   0  0  0  0  0  0  0  0  0  0  0  0
  1 14  2  0  0  0  0
  2 23  1  0  0  0  0
  2 35  1  0  0  0  0
  3 31  2  0  0  0  0
  4 11  1  0  0  0  0
  4 13  1  0  0  0  0
  4 15  1  0  0  0  0
  5 12  1  0  0  0  0
  5 14  1  0  0  0  0
  5 22  1  0  0  0  0
  6 11  2  0  0  0  0
  6 16  1  0  0  0  0
  7 16  2  0  0  0  0
  7 17  1  0  0  0  0
  8 16  1  0  0  0  0
  8 21  1  0  0  0  0
  9 31  1  0  0  0  0
  9 32  1  0  0  0  0
 10 36  1  0  0  0  0
 10 37  1  0  0  0  0
 10 38  1  0  0  0  0
 11 12  1  0  0  0  0
 12 17  2  0  0  0  0
 13 14  1  0  0  0  0
 13 18  1  0  0  0  0
 15 19  1  0  0  0  0
 15 20  1  0  0  0  0
 18 30  1  0  0  0  0
 19 24  1  0  0  0  0
 20 25  1  0  0  0  0
 21 23  1  0  0  0  0
 21 27  2  0  0  0  0
 23 28  2  0  0  0  0
 24 25  1  0  0  0  0
 26 28  1  0  0  0  0
 26 29  2  0  0  0  0
 26 31  1  0  0  0  0
 27 29  1  0  0  0  0
 32 33  1  0  0  0  0
 32 34  1  0  0  0  0
 33 36  1  0  0  0  0
 34 37  1  0  0  0  0
M  END
> <Value>
7.100015437450609

> <Relation>
=

> <SourceURI>
mol:CHEMBL1968380

$$$$

Generated by Molecular Materials Informatics

 19 20  0  0  0  0  0  0  0  0999 V2000
   -2.3481   -2.8160    0.0000 S   0  0  0  0  0  0  0  0  0  0  0  0
   -5.7251   -0.6446    0.0000 O   0  5  0  0  0  0  0  0  0  0  0  0
   -5.4535   -3.2284    0.0000 O   0  0  0  0  0  0  0  0  0  0  0  0
    1.6202   -0.7059    0.0000 O   0  0  0  0  0  0  0  0  0  0  0  0
   -1.1345   -0.7140    0.0000 N   0  0  0  0  0  0  0  0  0  0  0  0
   -4.8435   -1.8580    0.0000 N   0  3  0  0  0  0  0  0  0  0  0  0
    0.3213   -2.9558    0.0000 N   0  0  0  0  0  0  0  0  0  0  0  0
    2.9192   -2.9558    0.0000 N   0  0  0  0  0  0  0  0  0  0  0  0
   -3.3517   -1.7013    0.0000 C   0  0  0  0  0  0  0  0  0  0  0  0
   -0.9778   -2.2058    0.0000 C   0  0  0  0  0  0  0  0  0  0  0  0
   -2.6017   -0.4022    0.0000 C   0  0  0  0  0  0  0  0  0  0  0  0
    1.6202   -2.2058    0.0000 C   0  0  0  0  0  0  0  0  0  0  0  0
    5.5174   -2.9558    0.0000 C   0  0  0  0  0  0  0  0  0  0  0  0
    4.2183   -2.2058    0.0000 C   0  0  0  0  0  0  0  0  0  0  0  0
    6.8163   -2.2058    0.0000 C   0  0  0  0  0  0  0  0  0  0  0  0
    5.5174   -4.4558    0.0000 C   0  0  0  0  0  0  0  0  0  0  0  0
    8.1153   -2.9558    0.0000 C   0  0  0  0  0  0  0  0  0  0  0  0
    6.8163   -5.2058    0.0000 C   0  0  0  0  0  0  0  0  0  0  0  0
    8.1153   -4.4558    0.0000 C   0  0  0  0  0  0  0  0  0  0  0  0
  1  9  1  0  0  0  0
  1 10  1  0  0  0  0
  2  6  1  0  0  0  0
  3  6  2  0  0  0  0
  4 12  2  0  0  0  0
  5 10  2  0  0  0  0
  5 11  1  0  0  0  0
  6  9  1  0  0  0  0
  7 10  1  0  0  0  0
  7 12  1  0  0  0  0
  8 12  1  0  0  0  0
  8 14  1  0  0  0  0
  9 11  2  0  0  0  0
 13 14  1  0  0  0  0
 13 15  2  0  0  0  0
 13 16  1  0  0  0  0
 15 17  1  0  0  0  0
 16 18  2  0  0  0  0
 17 19  2  0  0  0  0
 18 19  1  0  0  0  0
M  CHG  2   2  -1   6   1
M  END
> <Value>
5.899998417198648

> <Relation>
<

> <SourceURI>
mol:CHEMBL1964644

$$$$

Generated by Molecular Materials Informatics

 23 26  0  0  0  0  0  0  0  0999 V2000
    2.1434   -1.7624    0.0000 N   0  0  0  0  0  0  0  0  0  0  0  0
    7.3394    1.2375    0.0000 N   0  0  0  0  0  0  0  0  0  0  0  0
   -3.0526    1.2375    0.0000 N   0  0  0  0  0  0  0  0  0  0  0  0
    2.1434    1.2375    0.0000 C   0  0  0  0  0  0  0  0  0  0  0  0
    3.4425    0.4875    0.0000 C   0  0  0  0  0  0  0  0  0  0  0  0
    0.8443    0.4875    0.0000 C   0  0  0  0  0  0  0  0  0  0  0  0
    3.4425   -1.0124    0.0000 C   0  0  0  0  0  0  0  0  0  0  0  0
    0.8443   -1.0124    0.0000 C   0  0  0  0  0  0  0  0  0  0  0  0
    2.1434    2.7375    0.0000 C   0  0  0  0  0  0  0  0  0  0  0  0
    4.7415    1.2375    0.0000 C   0  0  0  0  0  0  0  0  0  0  0  0
   -0.4545    1.2375    0.0000 C   0  0  0  0  0  0  0  0  0  0  0  0
    4.7415   -1.7624    0.0000 C   0  0  0  0  0  0  0  0  0  0  0  0
   -0.4545   -1.7624    0.0000 C   0  0  0  0  0  0  0  0  0  0  0  0
    6.0404    0.4875    0.0000 C   0  0  0  0  0  0  0  0  0  0  0  0
   -1.7536    0.4875    0.0000 C   0  0  0  0  0  0  0  0  0  0  0  0
    6.0404   -1.0124    0.0000 C   0  0  0  0  0  0  0  0  0  0  0  0
   -1.7536   -1.0124    0.0000 C   0  0  0  0  0  0  0  0  0  0  0  0
    0.8443    3.4874    0.0000 C   0  0  0  0  0  0  0  0  0  0  0  0
    3.4425    3.4874    0.0000 C   0  0  0  0  0  0  0  0  0  0  0  0
    2.1434   -3.2624    0.0000 C   0  0  0  0  0  0  0  0  0  0  0  0
    0.8443    4.9874    0.0000 C   0  0  0  0  0  0  0  0  0  0  0  0
    3.4425    4.9874    0.0000 C   0  0  0  0  0  0  0  0  0  0  0  0
    2.1434    5.7374    0.0000 C   0  0  0  0  0  0  0  0  0  0  0  0
  1  7  1  0  0  0  0
  1  8  1  0  0  0  0
  1 20  1  0  0  0  0
  2 14  1  0  0  0  0
  3 15  1  0  0  0  0
  4  5  1  0  0  0  0
  4  6  1  0  0  0  0
  4  9  1  0  0  0  0
  5  7  1  0  0  0  0
  5 10  2  0  0  0  0
  6  8  1  0  0  0  0
  6 11  2  0  0  0  0
  7 12  2  0  0  0  0
  8 13  2  0  0  0  0
  9 18  2  0  0  0  0
  9 19  1  0  0  0  0
 10 14  1  0  0  0  0
 11 15  1  0  0  0  0
 12 16  1  0  0  0  0
 13 17  1  0  0  0  0
 14 16  2  0  0  0  0
 15 17  2  0  0  0  0
 18 21  1  0  0  0  0
 19 22  2  0  0  0  0
 21 23  2  0  0  0  0
 22 23  1  0  0  0  0
M  END
> <Value>
6.0999990348465305

> <Relation>
=

> <SourceURI>
mol:CHEMBL1991734

$$$$

Generated by Molecular Materials Informatics

 22 24  0  0  0  0  0  0  0  0999 V2000
    9.8724    2.2313    0.0000 Cl  0  0  0  0  0  0  0  0  0  0  0  0
    9.8724   -0.7687    0.0000 Cl  0  0  0  0  0  0  0  0  0  0  0  0
    2.0782    3.7313    0.0000 O   0  0  0  0  0  0  0  0  0  0  0  0
   -4.5445    4.1947    0.0000 N   0  0  0  0  0  0  0  0  0  0  0  0
    0.7791    1.4813    0.0000 N   0  0  0  0  0  0  0  0  0  0  0  0
   -5.4262    2.9812    0.0000 N   0  0  0  0  0  0  0  0  0  0  0  0
    3.3773    1.4813    0.0000 N   0  0  0  0  0  0  0  0  0  0  0  0
   -3.1180    2.2313    0.0000 C   0  0  0  0  0  0  0  0  0  0  0  0
   -3.1180    3.7313    0.0000 C   0  0  0  0  0  0  0  0  0  0  0  0
   -0.5198    2.2313    0.0000 C   0  0  0  0  0  0  0  0  0  0  0  0
   -1.8189    1.4813    0.0000 C   0  0  0  0  0  0  0  0  0  0  0  0
   -1.8189    4.4812    0.0000 C   0  0  0  0  0  0  0  0  0  0  0  0
   -4.5445    1.7678    0.0000 C   0  0  0  0  0  0  0  0  0  0  0  0
   -0.5198    3.7313    0.0000 C   0  0  0  0  0  0  0  0  0  0  0  0
    5.9753    1.4813    0.0000 C   0  0  0  0  0  0  0  0  0  0  0  0
    8.5735    1.4813    0.0000 C   0  0  0  0  0  0  0  0  0  0  0  0
    2.0782    2.2313    0.0000 C   0  0  0  0  0  0  0  0  0  0  0  0
    8.5735   -0.0187    0.0000 C   0  0  0  0  0  0  0  0  0  0  0  0
    7.2744    2.2313    0.0000 C   0  0  0  0  0  0  0  0  0  0  0  0
    5.9753   -0.0187    0.0000 C   0  0  0  0  0  0  0  0  0  0  0  0
    4.6764    2.2313    0.0000 C   0  0  0  0  0  0  0  0  0  0  0  0
    7.2744   -0.7687    0.0000 C   0  0  0  0  0  0  0  0  0  0  0  0
  1 16  1  0  0  0  0
  2 18  1  0  0  0  0
  3 17  2  0  0  0  0
  4  6  1  0  0  0  0
  4  9  1  0  0  0  0
  5 10  1  0  0  0  0
  5 17  1  0  0  0  0
  6 13  2  0  0  0  0
  7 17  1  0  0  0  0
  7 21  1  0  0  0  0
  8  9  1  0  0  0  0
  8 11  2  0  0  0  0
  8 13  1  0  0  0  0
  9 12  2  0  0  0  0
 10 11  1  0  0  0  0
 10 14  2  0  0  0  0
 12 14  1  0  0  0  0
 15 19  1  0  0  0  0
 15 20  2  0  0  0  0
 15 21  1  0  0  0  0
 16 18  1  0  0  0  0
 16 19  2  0  0  0  0
 18 22  2  0  0  0  0
 20 22  1  0  0  0  0
M  END
> <Value>
5.899998417198648

> <Relation>
<

> <SourceURI>
mol:CHEMBL1981782

$$$$

Generated by Molecular Materials Informatics

 19 21  0  0  0  0  0  0  0  0999 V2000
    1.0447   -1.7447    0.0000 S   0  0  0  0  0  0  0  0  0  0  0  0
   -4.7429    1.3061    0.0000 F   0  0  0  0  0  0  0  0  0  0  0  0
    4.1763    0.7679    0.0000 O   0  0  0  0  0  0  0  0  0  0  0  0
   -2.6900   -0.5312    0.0000 N   0  0  0  0  0  0  0  0  0  0  0  0
   -1.8084   -1.7447    0.0000 N   0  0  0  0  0  0  0  0  0  0  0  0
    4.1763   -1.8303    0.0000 N   0  0  0  0  0  0  0  0  0  0  0  0
   -0.3818    0.2188    0.0000 C   0  0  0  0  0  0  0  0  0  0  0  0
   -1.8084    0.6823    0.0000 C   0  0  0  0  0  0  0  0  0  0  0  0
   -0.3818   -1.2812    0.0000 C   0  0  0  0  0  0  0  0  0  0  0  0
    1.9263   -0.5312    0.0000 C   0  0  0  0  0  0  0  0  0  0  0  0
   -2.2720    2.1090    0.0000 C   0  0  0  0  0  0  0  0  0  0  0  0
    1.0447    0.6823    0.0000 C   0  0  0  0  0  0  0  0  0  0  0  0
    3.4263   -0.5312    0.0000 C   0  0  0  0  0  0  0  0  0  0  0  0
   -3.7391    2.4208    0.0000 C   0  0  0  0  0  0  0  0  0  0  0  0
   -1.2682    3.2237    0.0000 C   0  0  0  0  0  0  0  0  0  0  0  0
   -4.2028    3.8474    0.0000 C   0  0  0  0  0  0  0  0  0  0  0  0
   -1.7319    4.6503    0.0000 C   0  0  0  0  0  0  0  0  0  0  0  0
   -3.1989    4.9621    0.0000 C   0  0  0  0  0  0  0  0  0  0  0  0
    5.6763   -1.8303    0.0000 C   0  0  0  0  0  0  0  0  0  0  0  0
  1  9  1  0  0  0  0
  1 10  1  0  0  0  0
  2 14  1  0  0  0  0
  3 13  2  0  0  0  0
  4  5  1  0  0  0  0
  4  8  2  0  0  0  0
  5  9  1  0  0  0  0
  6 13  1  0  0  0  0
  6 19  1  0  0  0  0
  7  8  1  0  0  0  0
  7  9  2  0  0  0  0
  7 12  1  0  0  0  0
  8 11  1  0  0  0  0
 10 12  2  0  0  0  0
 10 13  1  0  0  0  0
 11 14  1  0  0  0  0
 11 15  2  0  0  0  0
 14 16  2  0  0  0  0
 15 17  1  0  0  0  0
 16 18  1  0  0  0  0
 17 18  2  0  0  0  0
M  END
> <Value>
6.399996913372259

> <Relation>
=

> <SourceURI>
mol:CHEMBL1977681

$$$$

Generated by Molecular Materials Informatics

 38 42  0  0  0  0  0  0  0  0999 V2000
   -0.0759    3.3308    0.0000 S   0  0  0  0  0  0  0  0  0  0  0  0
    3.1199   10.1661    0.0000 O   0  0  0  0  0  0  0  0  0  0  0  0
   -4.4010   -3.9998    0.0000 O   0  0  0  0  0  0  0  0  0  0  0  0
    3.9488    1.3671    0.0000 N   0  0  0  0  0  0  0  0  0  0  0  0
    1.8997    7.4255    0.0000 N   0  0  0  0  0  0  0  0  0  0  0  0
    3.3997    7.4255    0.0000 N   0  0  0  0  0  0  0  0  0  0  0  0
    2.6497   -0.8829    0.0000 N   0  0  0  0  0  0  0  0  0  0  0  0
   -1.9301   -4.8027    0.0000 N   0  0  0  0  0  0  0  0  0  0  0  0
    0.7464   11.2228    0.0000 N   0  0  0  0  0  0  0  0  0  0  0  0
   -3.8608   -6.5410    0.0000 N   0  0  0  0  0  0  0  0  0  0  0  0
    1.3506    1.3671    0.0000 C   0  0  0  0  0  0  0  0  0  0  0  0
    1.3506    2.8671    0.0000 C   0  0  0  0  0  0  0  0  0  0  0  0
   -0.0759    0.9037    0.0000 C   0  0  0  0  0  0  0  0  0  0  0  0
    2.6497    3.6171    0.0000 C   0  0  0  0  0  0  0  0  0  0  0  0
    2.6497    0.6171    0.0000 C   0  0  0  0  0  0  0  0  0  0  0  0
    2.6497    5.1171    0.0000 C   0  0  0  0  0  0  0  0  0  0  0  0
   -0.5394   -0.5229    0.0000 C   0  0  0  0  0  0  0  0  0  0  0  0
   -0.9576    2.1171    0.0000 C   0  0  0  0  0  0  0  0  0  0  0  0
    3.9488    2.8671    0.0000 C   0  0  0  0  0  0  0  0  0  0  0  0
    1.4361    5.9990    0.0000 C   0  0  0  0  0  0  0  0  0  0  0  0
    3.8632    5.9990    0.0000 C   0  0  0  0  0  0  0  0  0  0  0  0
    0.4643   -1.6376    0.0000 C   0  0  0  0  0  0  0  0  0  0  0  0
   -2.0066   -0.8347    0.0000 C   0  0  0  0  0  0  0  0  0  0  0  0
    1.0181    8.6390    0.0000 C   0  0  0  0  0  0  0  0  0  0  0  0
   -1.4665   -3.3761    0.0000 C   0  0  0  0  0  0  0  0  0  0  0  0
    0.0006   -3.0641    0.0000 C   0  0  0  0  0  0  0  0  0  0  0  0
   -2.4703   -2.2614    0.0000 C   0  0  0  0  0  0  0  0  0  0  0  0
    1.6281   10.0093    0.0000 C   0  0  0  0  0  0  0  0  0  0  0  0
   -0.4737    8.4822    0.0000 C   0  0  0  0  0  0  0  0  0  0  0  0
   -3.3972   -5.1145    0.0000 C   0  0  0  0  0  0  0  0  0  0  0  0
   -2.8570   -7.6558    0.0000 C   0  0  0  0  0  0  0  0  0  0  0  0
   -1.3899   -7.3439    0.0000 C   0  0  0  0  0  0  0  0  0  0  0  0
   -3.3206   -9.0823    0.0000 C   0  0  0  0  0  0  0  0  0  0  0  0
    1.3566   12.5931    0.0000 C   0  0  0  0  0  0  0  0  0  0  0  0
   -0.8497   -9.8852    0.0000 C   0  0  0  0  0  0  0  0  0  0  0  0
   -0.3861   -8.4587    0.0000 C   0  0  0  0  0  0  0  0  0  0  0  0
   -2.3168  -10.1970    0.0000 C   0  0  0  0  0  0  0  0  0  0  0  0
    0.1541  -10.9999    0.0000 C   0  0  0  0  0  0  0  0  0  0  0  0
  1 12  1  0  0  0  0
  1 18  1  0  0  0  0
  2 28  2  0  0  0  0
  3 30  2  0  0  0  0
  4 15  2  0  0  0  0
  4 19  1  0  0  0  0
  5  6  1  0  0  0  0
  5 20  1  0  0  0  0
  5 24  1  0  0  0  0
  6 21  2  0  0  0  0
  7 15  1  0  0  0  0
  8 25  1  0  0  0  0
  8 30  1  0  0  0  0
  9 28  1  0  0  0  0
  9 34  1  0  0  0  0
 10 30  1  0  0  0  0
 10 31  1  0  0  0  0
 11 12  2  0  0  0  0
 11 13  1  0  0  0  0
 11 15  1  0  0  0  0
 12 14  1  0  0  0  0
 13 17  1  0  0  0  0
 13 18  2  0  0  0  0
 14 16  1  0  0  0  0
 14 19  2  0  0  0  0
 16 20  2  0  0  0  0
 16 21  1  0  0  0  0
 17 22  2  0  0  0  0
 17 23  1  0  0  0  0
 22 26  1  0  0  0  0
 23 27  2  0  0  0  0
 24 28  1  0  0  0  0
 24 29  1  0  0  0  0
 25 26  2  0  0  0  0
 25 27  1  0  0  0  0
 31 32  2  0  0  0  0
 31 33  1  0  0  0  0
 32 36  1  0  0  0  0
 33 37  2  0  0  0  0
 35 36  2  0  0  0  0
 35 37  1  0  0  0  0
 35 38  1  0  0  0  0
M  END
> <Value>
5.899998417198648

> <Relation>
<

> <SourceURI>
mol:CHEMBL1970142

$$$$

Generated by Molecular Materials Informatics

 41 45  0  0  0  0  0  0  0  0999 V2000
    4.0206   -5.8998    0.0000 C   0  0  0  0  0  0  0  0  0  0  0  0
    4.0184   -7.4043    0.0000 C   0  0  0  0  0  0  0  0  0  0  0  0
    5.3184   -8.1549    0.0000 C   0  0  0  0  0  0  0  0  0  0  0  0
    5.3151   -5.1492    0.0000 C   0  0  0  0  0  0  0  0  0  0  0  0
    6.6157   -5.8933    0.0000 C   0  0  0  0  0  0  0  0  0  0  0  0
    6.6172   -7.3967    0.0000 C   0  0  0  0  0  0  0  0  0  0  0  0
    7.9179   -8.1440    0.0000 N   0  0  0  0  0  0  0  0  0  0  0  0
    9.2180   -7.3898    0.0000 C   0  0  0  0  0  0  0  0  0  0  0  0
    9.2094   -5.8805    0.0000 N   0  0  0  0  0  0  0  0  0  0  0  0
    7.9077   -5.1401    0.0000 C   0  0  0  0  0  0  0  0  0  0  0  0
    7.8997   -3.6400    0.0000 N   0  0  0  0  0  0  0  0  0  0  0  0
    9.1956   -2.8930    0.0000 C   0  0  0  0  0  0  0  0  0  0  0  0
    9.1914   -1.3994    0.0000 C   0  0  0  0  0  0  0  0  0  0  0  0
    7.8915   -0.6492    0.0000 N   0  0  0  0  0  0  0  0  0  0  0  0
    6.5930   -1.4040    0.0000 C   0  0  0  0  0  0  0  0  0  0  0  0
    6.5945   -2.9088    0.0000 C   0  0  0  0  0  0  0  0  0  0  0  0
    7.8893    0.8509    0.0000 C   0  0  0  0  0  0  0  0  0  0  0  0
    9.1872    1.6030    0.0000 N   0  0  0  0  0  0  0  0  0  0  0  0
    6.5890    1.5990    0.0000 O   0  0  0  0  0  0  0  0  0  0  0  0
   10.4875    0.8549    0.0000 C   0  0  0  0  0  0  0  0  0  0  0  0
   10.4832   -0.6439    0.0000 C   0  0  0  0  0  0  0  0  0  0  0  0
   11.7818   -1.3918    0.0000 C   0  0  0  0  0  0  0  0  0  0  0  0
   13.0817   -0.6396    0.0000 C   0  0  0  0  0  0  0  0  0  0  0  0
   13.0745    0.8682    0.0000 C   0  0  0  0  0  0  0  0  0  0  0  0
   11.7747    1.6094    0.0000 C   0  0  0  0  0  0  0  0  0  0  0  0
   14.3829   -1.3860    0.0000 O   0  0  0  0  0  0  0  0  0  0  0  0
   15.6800   -0.6323    0.0000 C   0  0  0  0  0  0  0  0  0  0  0  0
   16.9812   -1.3785    0.0000 C   0  0  0  0  0  0  0  0  0  0  0  0
   15.6756    0.8678    0.0000 C   0  0  0  0  0  0  0  0  0  0  0  0
    2.7212   -5.1501    0.0000 O   0  0  0  0  0  0  0  0  0  0  0  0
    1.4224   -5.9004    0.0000 C   0  0  0  0  0  0  0  0  0  0  0  0
    2.7202   -8.1500    0.0000 O   0  0  0  0  0  0  0  0  0  0  0  0
    1.4246   -7.3999    0.0000 C   0  0  0  0  0  0  0  0  0  0  0  0
    0.1290   -8.1500    0.0000 C   0  0  0  0  0  0  0  0  0  0  0  0
   -1.1665   -7.3999    0.0000 C   0  0  0  0  0  0  0  0  0  0  0  0
   -2.4621   -8.1500    0.0000 N   0  0  0  0  0  0  0  0  0  0  0  0
   -3.7593   -7.3990    0.0000 C   0  0  0  0  0  0  0  0  0  0  0  0
   -5.0509   -8.1427    0.0000 C   0  0  0  0  0  0  0  0  0  0  0  0
   -5.0569   -9.6405    0.0000 C   0  0  0  0  0  0  0  0  0  0  0  0
   -3.7598  -10.3915    0.0000 C   0  0  0  0  0  0  0  0  0  0  0  0
   -2.4568   -9.6447    0.0000 C   0  0  0  0  0  0  0  0  0  0  0  0
  4  1  1  0  0  0  0
 18 20  1  0  0  0  0
  9 10  2  0  0  0  0
 20 21  2  0  0  0  0
 10  5  1  0  0  0  0
 21 22  1  0  0  0  0
 22 23  2  0  0  0  0
 10 11  1  0  0  0  0
 23 24  1  0  0  0  0
 11 12  1  0  0  0  0
 24 25  2  0  0  0  0
 25 20  1  0  0  0  0
  2  3  1  0  0  0  0
 23 26  1  0  0  0  0
  5  6  1  0  0  0  0
 26 27  1  0  0  0  0
  3  6  2  0  0  0  0
 27 28  1  0  0  0  0
  6  7  1  0  0  0  0
 27 29  1  0  0  0  0
  1  2  2  0  0  0  0
  1 30  1  0  0  0  0
 11 16  1  0  0  0  0
 30 31  1  0  0  0  0
 12 13  1  0  0  0  0
  2 32  1  0  0  0  0
 13 14  1  0  0  0  0
 32 33  1  0  0  0  0
 14 15  1  0  0  0  0
 33 34  1  0  0  0  0
 15 16  1  0  0  0  0
 34 35  1  0  0  0  0
  7  8  2  0  0  0  0
 35 36  1  0  0  0  0
 36 37  1  0  0  0  0
 14 17  1  0  0  0  0
  5  4  2  0  0  0  0
 17 18  1  0  0  0  0
  8  9  1  0  0  0  0
 17 19  2  0  0  0  0
 36 41  1  0  0  0  0
 37 38  1  0  0  0  0
 38 39  1  0  0  0  0
 39 40  1  0  0  0  0
 40 41  1  0  0  0  0
M  END
> <Value>
5.499999678657065

> <Relation>
<

> <SourceURI>
mol:CHEMBL124660

$$$$

Generated by Molecular Materials Informatics

 20 22  0  0  0  0  0  0  0  0999 V2000
   -6.7873   -1.0688    0.0000 O   0  0  0  0  0  0  0  0  0  0  0  0
   -1.5913    0.4312    0.0000 N   0  0  0  0  0  0  0  0  0  0  0  0
   -2.8902   -1.8187    0.0000 N   0  0  0  0  0  0  0  0  0  0  0  0
    6.2028   -4.0687    0.0000 N   0  0  0  0  0  0  0  0  0  0  0  0
    1.0068   -1.0688    0.0000 C   0  0  0  0  0  0  0  0  0  0  0  0
    1.0068    0.4312    0.0000 C   0  0  0  0  0  0  0  0  0  0  0  0
    3.6047   -1.0688    0.0000 C   0  0  0  0  0  0  0  0  0  0  0  0
    2.3057   -1.8187    0.0000 C   0  0  0  0  0  0  0  0  0  0  0  0
   -0.2922   -1.8187    0.0000 C   0  0  0  0  0  0  0  0  0  0  0  0
   -1.5913   -1.0688    0.0000 C   0  0  0  0  0  0  0  0  0  0  0  0
    4.9038   -1.8187    0.0000 C   0  0  0  0  0  0  0  0  0  0  0  0
    2.3057    1.1812    0.0000 C   0  0  0  0  0  0  0  0  0  0  0  0
    3.6047    0.4312    0.0000 C   0  0  0  0  0  0  0  0  0  0  0  0
   -0.2922    1.1812    0.0000 C   0  0  0  0  0  0  0  0  0  0  0  0
    4.9038   -3.3187    0.0000 C   0  0  0  0  0  0  0  0  0  0  0  0
    6.2028   -1.0688    0.0000 C   0  0  0  0  0  0  0  0  0  0  0  0
    7.5017   -1.8187    0.0000 C   0  0  0  0  0  0  0  0  0  0  0  0
    7.5017   -3.3187    0.0000 C   0  0  0  0  0  0  0  0  0  0  0  0
   -4.1892   -1.0688    0.0000 C   0  0  0  0  0  0  0  0  0  0  0  0
   -5.4883   -1.8187    0.0000 C   0  0  0  0  0  0  0  0  0  0  0  0
  1 20  1  0  0  0  0
  2 10  1  0  0  0  0
  2 14  2  0  0  0  0
  3 10  1  0  0  0  0
  3 19  1  0  0  0  0
  4 15  2  0  0  0  0
  4 18  1  0  0  0  0
  5  6  1  0  0  0  0
  5  8  2  0  0  0  0
  5  9  1  0  0  0  0
  6 12  2  0  0  0  0
  6 14  1  0  0  0  0
  7  8  1  0  0  0  0
  7 11  1  0  0  0  0
  7 13  2  0  0  0  0
  9 10  2  0  0  0  0
 11 15  1  0  0  0  0
 11 16  2  0  0  0  0
 12 13  1  0  0  0  0
 16 17  1  0  0  0  0
 17 18  2  0  0  0  0
 19 20  1  0  0  0  0
M  END
> <Value>
5.899998417198648

> <Relation>
<

> <SourceURI>
mol:CHEMBL1990912

$$$$

Generated by Molecular Materials Informatics

 11 12  0  0  0  0  0  0  0  0999 V2000
    3.5396    1.6560    0.0000 Br  0  0  0  0  0  0  0  0  0  0  0  0
   -1.7841   -1.0575    0.0000 N   0  0  0  0  0  0  0  0  0  0  0  0
   -2.6657    0.1559    0.0000 N   0  0  0  0  0  0  0  0  0  0  0  0
    0.9416   -1.3441    0.0000 N   0  0  0  0  0  0  0  0  0  0  0  0
   -2.2477    2.7962    0.0000 N   0  0  0  0  0  0  0  0  0  0  0  0
   -0.3575    0.9060    0.0000 C   0  0  0  0  0  0  0  0  0  0  0  0
   -0.3575   -0.5941    0.0000 C   0  0  0  0  0  0  0  0  0  0  0  0
   -1.7841    1.3694    0.0000 C   0  0  0  0  0  0  0  0  0  0  0  0
    0.9416    1.6560    0.0000 C   0  0  0  0  0  0  0  0  0  0  0  0
    2.2405    0.9060    0.0000 C   0  0  0  0  0  0  0  0  0  0  0  0
    2.2405   -0.5941    0.0000 C   0  0  0  0  0  0  0  0  0  0  0  0
  1 10  1  0  0  0  0
  2  3  1  0  0  0  0
  2  7  1  0  0  0  0
  3  8  2  0  0  0  0
  4  7  2  0  0  0  0
  4 11  1  0  0  0  0
  5  8  1  0  0  0  0
  6  7  1  0  0  0  0
  6  8  1  0  0  0  0
  6  9  2  0  0  0  0
  9 10  1  0  0  0  0
 10 11  2  0  0  0  0
M  END
> <Value>
4.70000006855703

> <Relation>
=

> <SourceURI>
mol:CHEMBL2002105

$$$$

Generated by Molecular Materials Informatics

 28 31  0  0  0  0  0  0  0  0999 V2000
    0.7868  -23.0515    0.0000 C   0  0  0  0  0  0  0  0  0  0  0  0
    0.7845  -24.5560    0.0000 C   0  0  0  0  0  0  0  0  0  0  0  0
    2.0807  -25.3067    0.0000 C   0  0  0  0  0  0  0  0  0  0  0  0
    3.3884  -24.5551    0.0000 C   0  0  0  0  0  0  0  0  0  0  0  0
    3.3828  -23.0440    0.0000 C   0  0  0  0  0  0  0  0  0  0  0  0
    2.0771  -22.3009    0.0000 C   0  0  0  0  0  0  0  0  0  0  0  0
    2.0789  -26.7978    0.0000 C   0  0  0  0  0  0  0  0  0  0  0  0
    2.0712  -29.7963    0.0000 C   0  0  0  0  0  0  0  0  0  0  0  0
    3.3759  -29.0407    0.0000 C   0  0  0  0  0  0  0  0  0  0  0  0
    3.3724  -27.5445    0.0000 C   0  0  0  0  0  0  0  0  0  0  0  0
    2.0702  -20.8009    0.0000 N   0  0  0  0  0  0  0  0  0  0  0  0
    3.3653  -20.0451    0.0000 C   0  0  0  0  0  0  0  0  0  0  0  0
    3.3584  -18.5451    0.0000 O   0  0  0  0  0  0  0  0  0  0  0  0
    4.6679  -20.7887    0.0000 N   0  0  0  0  0  0  0  0  0  0  0  0
    5.9635  -20.0329    0.0000 C   0  0  0  0  0  0  0  0  0  0  0  0
    7.2672  -20.7824    0.0000 C   0  0  0  0  0  0  0  0  0  0  0  0
    8.5616  -20.0277    0.0000 C   0  0  0  0  0  0  0  0  0  0  0  0
    8.5554  -18.5262    0.0000 C   0  0  0  0  0  0  0  0  0  0  0  0
    7.2439  -17.7826    0.0000 C   0  0  0  0  0  0  0  0  0  0  0  0
    5.9546  -18.5415    0.0000 C   0  0  0  0  0  0  0  0  0  0  0  0
    0.7726  -29.0429    0.0000 C   0  0  0  0  0  0  0  0  0  0  0  0
    0.7826  -27.5387    0.0000 C   0  0  0  0  0  0  0  0  0  0  0  0
   -0.6450  -27.0643    0.0000 C   0  0  0  0  0  0  0  0  0  0  0  0
   -1.5370  -28.2754    0.0000 N   0  0  0  0  0  0  0  0  0  0  0  0
   -0.6611  -29.4980    0.0000 N   0  0  0  0  0  0  0  0  0  0  0  0
   -1.0986  -25.6349    0.0000 N   0  0  0  0  0  0  0  0  0  0  0  0
    7.2717  -22.2824    0.0000 F   0  0  0  0  0  0  0  0  0  0  0  0
    7.2315  -16.2828    0.0000 C   0  0  0  0  0  0  0  0  0  0  0  0
 12 13  2  0  0  0  0
  1  2  2  0  0  0  0
 12 14  1  0  0  0  0
  7 22  2  0  0  0  0
 14 15  1  0  0  0  0
  3  4  2  0  0  0  0
 15 16  2  0  0  0  0
 21  8  2  0  0  0  0
 16 17  1  0  0  0  0
 17 18  2  0  0  0  0
  8  9  1  0  0  0  0
 18 19  1  0  0  0  0
  4  5  1  0  0  0  0
 19 20  2  0  0  0  0
 20 15  1  0  0  0  0
 21 22  1  0  0  0  0
  9 10  2  0  0  0  0
 10  7  1  0  0  0  0
  3  7  1  0  0  0  0
  2  3  1  0  0  0  0
  6 11  1  0  0  0  0
 22 23  1  0  0  0  0
 23 24  2  0  0  0  0
 24 25  1  0  0  0  0
 25 21  1  0  0  0  0
  5  6  2  0  0  0  0
 23 26  1  0  0  0  0
 11 12  1  0  0  0  0
 16 27  1  0  0  0  0
  6  1  1  0  0  0  0
 19 28  1  0  0  0  0
M  END
> <Value>
5.300000202445418

> <Relation>
<

> <SourceURI>
mol:CHEMBL223360

$$$$

Generated by Molecular Materials Informatics

 29 32  0  0  0  0  0  0  0  0999 V2000
    3.5480   -4.3365    0.0000 O   0  0  0  0  0  0  0  0  0  0  0  0
    7.7569   -0.6194    0.0000 N   0  0  0  0  0  0  0  0  0  0  0  0
    9.8587   -1.8329    0.0000 N   0  0  0  0  0  0  0  0  0  0  0  0
    9.3885    2.2068    0.0000 N   0  0  0  0  0  0  0  0  0  0  0  0
   10.5032    3.2104    0.0000 N   0  0  0  0  0  0  0  0  0  0  0  0
    4.8469   -6.5865    0.0000 N   0  0  0  0  0  0  0  0  0  0  0  0
    0.9498  -10.3365    0.0000 N   0  0  0  0  0  0  0  0  0  0  0  0
    9.2487   -0.4625    0.0000 C   0  0  0  0  0  0  0  0  0  0  0  0
    9.9987    0.8364    0.0000 C   0  0  0  0  0  0  0  0  0  0  0  0
    7.4451   -2.0865    0.0000 C   0  0  0  0  0  0  0  0  0  0  0  0
    8.7440   -2.8365    0.0000 C   0  0  0  0  0  0  0  0  0  0  0  0
   11.4905    0.9933    0.0000 C   0  0  0  0  0  0  0  0  0  0  0  0
   11.8023    2.4604    0.0000 C   0  0  0  0  0  0  0  0  0  0  0  0
    6.1460   -4.3365    0.0000 C   0  0  0  0  0  0  0  0  0  0  0  0
    6.1460   -2.8365    0.0000 C   0  0  0  0  0  0  0  0  0  0  0  0
    8.7440   -4.3365    0.0000 C   0  0  0  0  0  0  0  0  0  0  0  0
   12.6052   -0.0105    0.0000 C   0  0  0  0  0  0  0  0  0  0  0  0
    7.4451   -5.0865    0.0000 C   0  0  0  0  0  0  0  0  0  0  0  0
    4.8469   -5.0865    0.0000 C   0  0  0  0  0  0  0  0  0  0  0  0
   13.2289    2.9240    0.0000 C   0  0  0  0  0  0  0  0  0  0  0  0
   14.0318    0.4531    0.0000 C   0  0  0  0  0  0  0  0  0  0  0  0
   14.3436    1.9204    0.0000 C   0  0  0  0  0  0  0  0  0  0  0  0
    3.5480   -7.3365    0.0000 C   0  0  0  0  0  0  0  0  0  0  0  0
    6.1460   -7.3365    0.0000 C   0  0  0  0  0  0  0  0  0  0  0  0
    3.5480   -8.8365    0.0000 C   0  0  0  0  0  0  0  0  0  0  0  0
    6.1460   -8.8365    0.0000 C   0  0  0  0  0  0  0  0  0  0  0  0
    2.2489   -9.5865    0.0000 C   0  0  0  0  0  0  0  0  0  0  0  0
    7.4451   -9.5865    0.0000 C   0  0  0  0  0  0  0  0  0  0  0  0
    7.4451  -11.0865    0.0000 C   0  0  0  0  0  0  0  0  0  0  0  0
  1 19  2  0  0  0  0
  2  8  1  0  0  0  0
  2 10  1  0  0  0  0
  3  8  2  0  0  0  0
  3 11  1  0  0  0  0
  4  5  1  0  0  0  0
  4  9  2  0  0  0  0
  5 13  1  0  0  0  0
  6 19  1  0  0  0  0
  6 23  1  0  0  0  0
  6 24  1  0  0  0  0
  7 27  3  0  0  0  0
  8  9  1  0  0  0  0
  9 12  1  0  0  0  0
 10 11  1  0  0  0  0
 10 15  2  0  0  0  0
 11 16  2  0  0  0  0
 12 13  1  0  0  0  0
 12 17  2  0  0  0  0
 13 20  2  0  0  0  0
 14 15  1  0  0  0  0
 14 18  2  0  0  0  0
 14 19  1  0  0  0  0
 16 18  1  0  0  0  0
 17 21  1  0  0  0  0
 20 22  1  0  0  0  0
 21 22  2  0  0  0  0
 23 25  1  0  0  0  0
 24 26  1  0  0  0  0
 25 27  1  0  0  0  0
 26 28  1  0  0  0  0
 28 29  1  0  0  0  0
M  END
> <Value>
5.899998417198648

> <Relation>
=

> <SourceURI>
mol:CHEMBL1983348

$$$$

Generated by Molecular Materials Informatics

 37 41  0  0  0  0  0  0  0  0999 V2000
   -1.5394    5.1586    0.0000 O   0  0  0  0  0  0  0  0  0  0  0  0
   -6.4045   -2.4839    0.0000 O   0  0  0  0  0  0  0  0  0  0  0  0
   -1.0757    1.3050    0.0000 N   0  0  0  0  0  0  0  0  0  0  0  0
   -1.9574    2.5185    0.0000 N   0  0  0  0  0  0  0  0  0  0  0  0
    1.6499    1.0185    0.0000 N   0  0  0  0  0  0  0  0  0  0  0  0
   -3.0065   -0.4335    0.0000 N   0  0  0  0  0  0  0  0  0  0  0  0
    2.9488    3.2685    0.0000 N   0  0  0  0  0  0  0  0  0  0  0  0
    4.2479    1.0185    0.0000 N   0  0  0  0  0  0  0  0  0  0  0  0
    4.2479   -4.9815    0.0000 N   0  0  0  0  0  0  0  0  0  0  0  0
    4.2479   -7.9815    0.0000 N   0  0  0  0  0  0  0  0  0  0  0  0
    0.3508    1.7685    0.0000 C   0  0  0  0  0  0  0  0  0  0  0  0
    0.3508    3.2685    0.0000 C   0  0  0  0  0  0  0  0  0  0  0  0
   -1.0757    3.7319    0.0000 C   0  0  0  0  0  0  0  0  0  0  0  0
   -1.5394   -0.1217    0.0000 C   0  0  0  0  0  0  0  0  0  0  0  0
    1.6499    4.0185    0.0000 C   0  0  0  0  0  0  0  0  0  0  0  0
    2.9488    1.7685    0.0000 C   0  0  0  0  0  0  0  0  0  0  0  0
   -3.4574    2.5185    0.0000 C   0  0  0  0  0  0  0  0  0  0  0  0
   -0.5356   -1.2364    0.0000 C   0  0  0  0  0  0  0  0  0  0  0  0
   -3.4701   -1.8601    0.0000 C   0  0  0  0  0  0  0  0  0  0  0  0
   -4.9372   -2.1719    0.0000 C   0  0  0  0  0  0  0  0  0  0  0  0
   -0.9992   -2.6630    0.0000 C   0  0  0  0  0  0  0  0  0  0  0  0
   -2.4663   -2.9748    0.0000 C   0  0  0  0  0  0  0  0  0  0  0  0
    4.2479   -0.4815    0.0000 C   0  0  0  0  0  0  0  0  0  0  0  0
   -4.2074    1.2194    0.0000 C   0  0  0  0  0  0  0  0  0  0  0  0
    4.2479   -3.4815    0.0000 C   0  0  0  0  0  0  0  0  0  0  0  0
    5.5470   -1.2315    0.0000 C   0  0  0  0  0  0  0  0  0  0  0  0
    2.9488   -1.2315    0.0000 C   0  0  0  0  0  0  0  0  0  0  0  0
   -4.6254   -3.6392    0.0000 C   0  0  0  0  0  0  0  0  0  0  0  0
   -5.2492   -0.7048    0.0000 C   0  0  0  0  0  0  0  0  0  0  0  0
    5.5470   -2.7315    0.0000 C   0  0  0  0  0  0  0  0  0  0  0  0
    2.9488   -2.7315    0.0000 C   0  0  0  0  0  0  0  0  0  0  0  0
   -5.7074    1.2194    0.0000 C   0  0  0  0  0  0  0  0  0  0  0  0
    5.5470   -5.7315    0.0000 C   0  0  0  0  0  0  0  0  0  0  0  0
    2.9488   -5.7315    0.0000 C   0  0  0  0  0  0  0  0  0  0  0  0
    5.5470   -7.2315    0.0000 C   0  0  0  0  0  0  0  0  0  0  0  0
    2.9488   -7.2315    0.0000 C   0  0  0  0  0  0  0  0  0  0  0  0
    4.2479   -9.4815    0.0000 C   0  0  0  0  0  0  0  0  0  0  0  0
  1 13  2  0  0  0  0
  2 20  1  0  0  0  0
  3  4  1  0  0  0  0
  3 11  1  0  0  0  0
  3 14  1  0  0  0  0
  4 13  1  0  0  0  0
  4 17  1  0  0  0  0
  5 11  2  0  0  0  0
  5 16  1  0  0  0  0
  6 14  1  0  0  0  0
  6 19  2  0  0  0  0
  7 15  1  0  0  0  0
  7 16  2  0  0  0  0
  8 16  1  0  0  0  0
  8 23  1  0  0  0  0
  9 25  1  0  0  0  0
  9 33  1  0  0  0  0
  9 34  1  0  0  0  0
 10 35  1  0  0  0  0
 10 36  1  0  0  0  0
 10 37  1  0  0  0  0
 11 12  1  0  0  0  0
 12 13  1  0  0  0  0
 12 15  2  0  0  0  0
 14 18  2  0  0  0  0
 17 24  1  0  0  0  0
 18 21  1  0  0  0  0
 19 20  1  0  0  0  0
 19 22  1  0  0  0  0
 20 28  1  0  0  0  0
 20 29  1  0  0  0  0
 21 22  2  0  0  0  0
 23 26  2  0  0  0  0
 23 27  1  0  0  0  0
 24 32  2  0  0  0  0
 25 30  2  0  0  0  0
 25 31  1  0  0  0  0
 26 30  1  0  0  0  0
 27 31  2  0  0  0  0
 33 35  1  0  0  0  0
 34 36  1  0  0  0  0
M  END
> <Value>
5.300000202445418

> <Relation>
<

> <SourceURI>
mol:CHEMBL1976040

$$$$

Generated by Molecular Materials Informatics

 26 29  0  0  0  0  0  0  0  0999 V2000
    5.5560    3.6360    0.0000 S   0  0  0  0  0  0  0  0  0  0  0  0
    5.5560    5.1360    0.0000 O   0  0  0  0  0  0  0  0  0  0  0  0
    4.0560    3.6360    0.0000 O   0  0  0  0  0  0  0  0  0  0  0  0
   -2.3658   -0.5775    0.0000 N   0  0  0  0  0  0  0  0  0  0  0  0
    0.3599   -0.8640    0.0000 N   0  0  0  0  0  0  0  0  0  0  0  0
    1.6588    1.3860    0.0000 N   0  0  0  0  0  0  0  0  0  0  0  0
    2.9579   -0.8640    0.0000 N   0  0  0  0  0  0  0  0  0  0  0  0
    7.0560    3.6360    0.0000 N   0  0  0  0  0  0  0  0  0  0  0  0
   -0.9392   -0.1140    0.0000 C   0  0  0  0  0  0  0  0  0  0  0  0
   -0.9392    1.3860    0.0000 C   0  0  0  0  0  0  0  0  0  0  0  0
    1.6588   -0.1140    0.0000 C   0  0  0  0  0  0  0  0  0  0  0  0
   -2.8294   -2.0042    0.0000 C   0  0  0  0  0  0  0  0  0  0  0  0
   -3.2474    0.6360    0.0000 C   0  0  0  0  0  0  0  0  0  0  0  0
   -2.3658    1.8494    0.0000 C   0  0  0  0  0  0  0  0  0  0  0  0
    0.3599    2.1360    0.0000 C   0  0  0  0  0  0  0  0  0  0  0  0
    4.2569   -0.1140    0.0000 C   0  0  0  0  0  0  0  0  0  0  0  0
    5.5560    2.1360    0.0000 C   0  0  0  0  0  0  0  0  0  0  0  0
    4.2569    1.3860    0.0000 C   0  0  0  0  0  0  0  0  0  0  0  0
   -1.8256   -3.1189    0.0000 C   0  0  0  0  0  0  0  0  0  0  0  0
   -4.2965   -2.3160    0.0000 C   0  0  0  0  0  0  0  0  0  0  0  0
    5.5560   -0.8640    0.0000 C   0  0  0  0  0  0  0  0  0  0  0  0
    6.8549    1.3860    0.0000 C   0  0  0  0  0  0  0  0  0  0  0  0
    6.8549   -0.1140    0.0000 C   0  0  0  0  0  0  0  0  0  0  0  0
   -2.2892   -4.5455    0.0000 C   0  0  0  0  0  0  0  0  0  0  0  0
   -4.7601   -3.7426    0.0000 C   0  0  0  0  0  0  0  0  0  0  0  0
   -3.7563   -4.8573    0.0000 C   0  0  0  0  0  0  0  0  0  0  0  0
  1  2  2  0  0  0  0
  1  3  2  0  0  0  0
  1  8  1  0  0  0  0
  1 17  1  0  0  0  0
  4  9  1  0  0  0  0
  4 12  1  0  0  0  0
  4 13  1  0  0  0  0
  5  9  2  0  0  0  0
  5 11  1  0  0  0  0
  6 11  2  0  0  0  0
  6 15  1  0  0  0  0
  7 11  1  0  0  0  0
  7 16  1  0  0  0  0
  9 10  1  0  0  0  0
 10 14  1  0  0  0  0
 10 15  2  0  0  0  0
 12 19  2  0  0  0  0
 12 20  1  0  0  0  0
 13 14  2  0  0  0  0
 16 18  2  0  0  0  0
 16 21  1  0  0  0  0
 17 18  1  0  0  0  0
 17 22  2  0  0  0  0
 19 24  1  0  0  0  0
 20 25  2  0  0  0  0
 21 23  2  0  0  0  0
 22 23  1  0  0  0  0
 24 26  2  0  0  0  0
 25 26  1  0  0  0  0
M  END
> <Value>
6.900008766455316

> <Relation>
=

> <SourceURI>
mol:CHEMBL1988163

$$$$

Generated by Molecular Materials Informatics

 26 29  0  0  0  0  0  0  0  0999 V2000
   -3.0528    0.9000    0.0000 Cl  0  0  0  0  0  0  0  0  0  0  0  0
    2.1434   -3.6000    0.0000 O   0  0  0  0  0  0  0  0  0  0  0  0
    2.1434    6.9000    0.0000 O   0  0  0  0  0  0  0  0  0  0  0  0
    2.1434    0.9000    0.0000 N   0  0  0  0  0  0  0  0  0  0  0  0
    4.7416    0.9000    0.0000 N   0  0  0  0  0  0  0  0  0  0  0  0
    6.0405   -1.3500    0.0000 N   0  0  0  0  0  0  0  0  0  0  0  0
    4.7416   -3.6000    0.0000 N   0  0  0  0  0  0  0  0  0  0  0  0
    7.3396    0.9000    0.0000 N   0  0  0  0  0  0  0  0  0  0  0  0
    3.4425    0.1500    0.0000 C   0  0  0  0  0  0  0  0  0  0  0  0
    3.4425   -1.3500    0.0000 C   0  0  0  0  0  0  0  0  0  0  0  0
    0.8443    0.1500    0.0000 C   0  0  0  0  0  0  0  0  0  0  0  0
    0.8443   -1.3500    0.0000 C   0  0  0  0  0  0  0  0  0  0  0  0
    2.1434   -2.1000    0.0000 C   0  0  0  0  0  0  0  0  0  0  0  0
    2.1434    2.4000    0.0000 C   0  0  0  0  0  0  0  0  0  0  0  0
    4.7416   -2.1000    0.0000 C   0  0  0  0  0  0  0  0  0  0  0  0
   -0.4546    0.9000    0.0000 C   0  0  0  0  0  0  0  0  0  0  0  0
   -0.4546   -2.1000    0.0000 C   0  0  0  0  0  0  0  0  0  0  0  0
    0.8443    3.1500    0.0000 C   0  0  0  0  0  0  0  0  0  0  0  0
    6.0405    0.1500    0.0000 C   0  0  0  0  0  0  0  0  0  0  0  0
   -1.7537    0.1500    0.0000 C   0  0  0  0  0  0  0  0  0  0  0  0
    3.4425    3.1500    0.0000 C   0  0  0  0  0  0  0  0  0  0  0  0
   -1.7537   -1.3500    0.0000 C   0  0  0  0  0  0  0  0  0  0  0  0
    0.8443    4.6500    0.0000 C   0  0  0  0  0  0  0  0  0  0  0  0
    3.4425    4.6500    0.0000 C   0  0  0  0  0  0  0  0  0  0  0  0
    2.1434    5.4000    0.0000 C   0  0  0  0  0  0  0  0  0  0  0  0
   -0.4546    2.4000    0.0000 C   0  0  0  0  0  0  0  0  0  0  0  0
  1 20  1  0  0  0  0
  2 13  2  0  0  0  0
  3 25  1  0  0  0  0
  4  9  1  0  0  0  0
  4 11  1  0  0  0  0
  4 14  1  0  0  0  0
  5  9  2  0  0  0  0
  5 19  1  0  0  0  0
  6 15  1  0  0  0  0
  6 19  2  0  0  0  0
  7 15  1  0  0  0  0
  8 19  1  0  0  0  0
  9 10  1  0  0  0  0
 10 13  1  0  0  0  0
 10 15  2  0  0  0  0
 11 12  1  0  0  0  0
 11 16  2  0  0  0  0
 12 13  1  0  0  0  0
 12 17  2  0  0  0  0
 14 18  1  0  0  0  0
 14 21  2  0  0  0  0
 16 20  1  0  0  0  0
 17 22  1  0  0  0  0
 18 23  2  0  0  0  0
 18 26  1  0  0  0  0
 20 22  2  0  0  0  0
 21 24  1  0  0  0  0
 23 25  1  0  0  0  0
 24 25  2  0  0  0  0
M  END
> <Value>
5.899998417198648

> <Relation>
<

> <SourceURI>
mol:CHEMBL1995592

$$$$

Generated by Molecular Materials Informatics

 17 19  0  0  0  0  0  0  0  0999 V2000
    5.2044   -3.3452    0.0000 O   0  0  0  0  0  0  0  0  0  0  0  0
    3.8037    1.2923    0.0000 N   0  0  0  0  0  0  0  0  0  0  0  0
    3.0537   -1.9937    0.0000 N   0  0  0  0  0  0  0  0  0  0  0  0
    6.2546    1.6618    0.0000 N   0  0  0  0  0  0  0  0  0  0  0  0
    8.0219   -0.2428    0.0000 N   0  0  0  0  0  0  0  0  0  0  0  0
    7.2561   -2.7255    0.0000 N   0  0  0  0  0  0  0  0  0  0  0  0
    5.4888   -0.8210    0.0000 C   0  0  0  0  0  0  0  0  0  0  0  0
    5.1552    0.6414    0.0000 C   0  0  0  0  0  0  0  0  0  0  0  0
    4.5537   -1.9937    0.0000 C   0  0  0  0  0  0  0  0  0  0  0  0
    2.4522    0.6414    0.0000 C   0  0  0  0  0  0  0  0  0  0  0  0
    6.9223   -1.2632    0.0000 C   0  0  0  0  0  0  0  0  0  0  0  0
    2.1184   -0.8210    0.0000 C   0  0  0  0  0  0  0  0  0  0  0  0
    7.6881    1.2196    0.0000 C   0  0  0  0  0  0  0  0  0  0  0  0
    1.3526    1.6618    0.0000 C   0  0  0  0  0  0  0  0  0  0  0  0
    0.6849   -1.2632    0.0000 C   0  0  0  0  0  0  0  0  0  0  0  0
   -0.0807    1.2196    0.0000 C   0  0  0  0  0  0  0  0  0  0  0  0
   -0.4145   -0.2428    0.0000 C   0  0  0  0  0  0  0  0  0  0  0  0
  1  9  2  0  0  0  0
  2  8  1  0  0  0  0
  2 10  1  0  0  0  0
  3  9  1  0  0  0  0
  3 12  1  0  0  0  0
  4  8  1  0  0  0  0
  4 13  2  0  0  0  0
  5 11  2  0  0  0  0
  5 13  1  0  0  0  0
  6 11  1  0  0  0  0
  7  8  2  0  0  0  0
  7  9  1  0  0  0  0
  7 11  1  0  0  0  0
 10 12  1  0  0  0  0
 10 14  2  0  0  0  0
 12 15  2  0  0  0  0
 14 16  1  0  0  0  0
 15 17  1  0  0  0  0
 16 17  2  0  0  0  0
M  END
> <Value>
4.800000052738446

> <Relation>
=

> <SourceURI>
mol:CHEMBL1980671

$$$$

Generated by Molecular Materials Informatics

 20 22  0  0  0  0  0  0  0  0999 V2000
    8.0539   -1.8826    0.0000 F   0  0  0  0  0  0  0  0  0  0  0  0
    7.5048    0.1664    0.0000 F   0  0  0  0  0  0  0  0  0  0  0  0
    6.0049   -2.4317    0.0000 F   0  0  0  0  0  0  0  0  0  0  0  0
    1.5588   -1.1327    0.0000 O   0  0  0  0  0  0  0  0  0  0  0  0
    1.5588    3.3672    0.0000 O   0  0  0  0  0  0  0  0  0  0  0  0
   -1.0391    3.3672    0.0000 O   0  0  0  0  0  0  0  0  0  0  0  0
    2.8579    1.1173    0.0000 C   0  0  0  0  0  0  0  0  0  0  0  0
    2.8579   -0.3827    0.0000 C   0  0  0  0  0  0  0  0  0  0  0  0
    0.2598    1.1173    0.0000 C   0  0  0  0  0  0  0  0  0  0  0  0
    1.5588    1.8673    0.0000 C   0  0  0  0  0  0  0  0  0  0  0  0
    0.2598   -0.3827    0.0000 C   0  0  0  0  0  0  0  0  0  0  0  0
    5.4558   -0.3827    0.0000 C   0  0  0  0  0  0  0  0  0  0  0  0
    4.1570   -1.1327    0.0000 C   0  0  0  0  0  0  0  0  0  0  0  0
   -1.0391    1.8673    0.0000 C   0  0  0  0  0  0  0  0  0  0  0  0
    4.1570    1.8673    0.0000 C   0  0  0  0  0  0  0  0  0  0  0  0
    6.7549   -1.1327    0.0000 C   0  0  0  0  0  0  0  0  0  0  0  0
    5.4558    1.1173    0.0000 C   0  0  0  0  0  0  0  0  0  0  0  0
   -1.0391   -1.1327    0.0000 C   0  0  0  0  0  0  0  0  0  0  0  0
   -2.3381    1.1173    0.0000 C   0  0  0  0  0  0  0  0  0  0  0  0
   -2.3381   -0.3827    0.0000 C   0  0  0  0  0  0  0  0  0  0  0  0
  1 16  1  0  0  0  0
  2 16  1  0  0  0  0
  3 16  1  0  0  0  0
  4  8  1  0  0  0  0
  4 11  1  0  0  0  0
  5 10  2  0  0  0  0
  6 14  2  0  0  0  0
  7  8  1  0  0  0  0
  7 10  1  0  0  0  0
  7 15  2  0  0  0  0
  8 13  2  0  0  0  0
  9 10  1  0  0  0  0
  9 11  2  0  0  0  0
  9 14  1  0  0  0  0
 11 18  1  0  0  0  0
 12 13  1  0  0  0  0
 12 16  1  0  0  0  0
 12 17  2  0  0  0  0
 14 19  1  0  0  0  0
 15 17  1  0  0  0  0
 18 20  1  0  0  0  0
 19 20  1  0  0  0  0
M  END
> <Value>
5.899998417198648

> <Relation>
<

> <SourceURI>
mol:CHEMBL2006493

$$$$

Generated by Molecular Materials Informatics

 28 31  0  0  0  0  0  0  0  0999 V2000
   -9.6374    4.8073    0.0000 Cl  0  0  0  0  0  0  0  0  0  0  0  0
    0.6171   -0.3169    0.0000 S   0  0  0  0  0  0  0  0  0  0  0  0
   -2.9283    2.7242    0.0000 S   0  0  0  0  0  0  0  0  0  0  0  0
   -5.1619    4.3369    0.0000 O   0  0  0  0  0  0  0  0  0  0  0  0
    3.3428   -3.0304    0.0000 N   0  0  0  0  0  0  0  0  0  0  0  0
    4.6417   -0.7804    0.0000 N   0  0  0  0  0  0  0  0  0  0  0  0
    3.3428    1.4696    0.0000 N   0  0  0  0  0  0  0  0  0  0  0  0
   -0.7112    3.7115    0.0000 N   0  0  0  0  0  0  0  0  0  0  0  0
   -2.7885    5.3936    0.0000 N   0  0  0  0  0  0  0  0  0  0  0  0
   -4.8903    6.9207    0.0000 N   0  0  0  0  0  0  0  0  0  0  0  0
    2.0437   -0.7804    0.0000 C   0  0  0  0  0  0  0  0  0  0  0  0
    2.0437   -2.2804    0.0000 C   0  0  0  0  0  0  0  0  0  0  0  0
    3.3428   -0.0304    0.0000 C   0  0  0  0  0  0  0  0  0  0  0  0
    0.6171   -2.7438    0.0000 C   0  0  0  0  0  0  0  0  0  0  0  0
   -2.1783    4.0233    0.0000 C   0  0  0  0  0  0  0  0  0  0  0  0
   -0.5543    2.2196    0.0000 C   0  0  0  0  0  0  0  0  0  0  0  0
   -0.2645   -1.5304    0.0000 C   0  0  0  0  0  0  0  0  0  0  0  0
    4.6417   -2.2804    0.0000 C   0  0  0  0  0  0  0  0  0  0  0  0
   -1.9247    1.6095    0.0000 C   0  0  0  0  0  0  0  0  0  0  0  0
    0.7446    1.4696    0.0000 C   0  0  0  0  0  0  0  0  0  0  0  0
    2.0437    2.2196    0.0000 C   0  0  0  0  0  0  0  0  0  0  0  0
   -4.2803    5.5504    0.0000 C   0  0  0  0  0  0  0  0  0  0  0  0
   -6.3821    7.0775    0.0000 C   0  0  0  0  0  0  0  0  0  0  0  0
   -7.2638    5.8640    0.0000 C   0  0  0  0  0  0  0  0  0  0  0  0
   -8.7556    6.0207    0.0000 C   0  0  0  0  0  0  0  0  0  0  0  0
   -6.9923    8.4478    0.0000 C   0  0  0  0  0  0  0  0  0  0  0  0
   -9.3658    7.3911    0.0000 C   0  0  0  0  0  0  0  0  0  0  0  0
   -8.4841    8.6046    0.0000 C   0  0  0  0  0  0  0  0  0  0  0  0
  1 25  1  0  0  0  0
  2 11  1  0  0  0  0
  2 17  1  0  0  0  0
  3 15  1  0  0  0  0
  3 19  1  0  0  0  0
  4 22  2  0  0  0  0
  5 12  1  0  0  0  0
  5 18  2  0  0  0  0
  6 13  2  0  0  0  0
  6 18  1  0  0  0  0
  7 13  1  0  0  0  0
  7 21  1  0  0  0  0
  8 15  2  0  0  0  0
  8 16  1  0  0  0  0
  9 15  1  0  0  0  0
  9 22  1  0  0  0  0
 10 22  1  0  0  0  0
 10 23  1  0  0  0  0
 11 12  2  0  0  0  0
 11 13  1  0  0  0  0
 12 14  1  0  0  0  0
 14 17  2  0  0  0  0
 16 19  2  0  0  0  0
 16 20  1  0  0  0  0
 20 21  1  0  0  0  0
 23 24  2  0  0  0  0
 23 26  1  0  0  0  0
 24 25  1  0  0  0  0
 25 27  2  0  0  0  0
 26 28  2  0  0  0  0
 27 28  1  0  0  0  0
M  END
> <Value>
5.300000202445418

> <Relation>
<

> <SourceURI>
mol:CHEMBL1986177

$$$$

Generated by Molecular Materials Informatics

 30 33  0  0  0  0  0  0  0  0999 V2000
    3.4143    3.4648    0.0000 Cl  0  0  0  0  0  0  0  0  0  0  0  0
   -6.1930    0.4648    0.0000 F   0  0  0  0  0  0  0  0  0  0  0  0
   -7.0345   -7.7027    0.0000 O   0  0  0  0  0  0  0  0  0  0  0  0
    2.1152   -0.2852    0.0000 N   0  0  0  0  0  0  0  0  0  0  0  0
    0.6886    1.6782    0.0000 N   0  0  0  0  0  0  0  0  0  0  0  0
   -1.2421   -2.4872    0.0000 N   0  0  0  0  0  0  0  0  0  0  0  0
    4.7134    1.2148    0.0000 N   0  0  0  0  0  0  0  0  0  0  0  0
   -0.7019   -5.0285    0.0000 N   0  0  0  0  0  0  0  0  0  0  0  0
   -3.1728   -4.2258    0.0000 N   0  0  0  0  0  0  0  0  0  0  0  0
    0.6886   -0.7489    0.0000 C   0  0  0  0  0  0  0  0  0  0  0  0
   -0.1930    0.4648    0.0000 C   0  0  0  0  0  0  0  0  0  0  0  0
    2.1152    1.2148    0.0000 C   0  0  0  0  0  0  0  0  0  0  0  0
    0.2252   -2.1754    0.0000 C   0  0  0  0  0  0  0  0  0  0  0  0
   -1.6930    0.4648    0.0000 C   0  0  0  0  0  0  0  0  0  0  0  0
    3.4143    1.9648    0.0000 C   0  0  0  0  0  0  0  0  0  0  0  0
    3.4143   -1.0352    0.0000 C   0  0  0  0  0  0  0  0  0  0  0  0
    1.2288   -3.2901    0.0000 C   0  0  0  0  0  0  0  0  0  0  0  0
    4.7134   -0.2852    0.0000 C   0  0  0  0  0  0  0  0  0  0  0  0
   -2.4430   -0.8343    0.0000 C   0  0  0  0  0  0  0  0  0  0  0  0
   -2.4430    1.7637    0.0000 C   0  0  0  0  0  0  0  0  0  0  0  0
   -1.7057   -3.9139    0.0000 C   0  0  0  0  0  0  0  0  0  0  0  0
    0.7652   -4.7167    0.0000 C   0  0  0  0  0  0  0  0  0  0  0  0
   -3.9430   -0.8343    0.0000 C   0  0  0  0  0  0  0  0  0  0  0  0
   -3.9430    1.7637    0.0000 C   0  0  0  0  0  0  0  0  0  0  0  0
   -4.6930    0.4648    0.0000 C   0  0  0  0  0  0  0  0  0  0  0  0
   -3.6365   -5.6523    0.0000 C   0  0  0  0  0  0  0  0  0  0  0  0
   -5.1036   -5.9641    0.0000 C   0  0  0  0  0  0  0  0  0  0  0  0
   -6.5708   -6.2761    0.0000 C   0  0  0  0  0  0  0  0  0  0  0  0
   -5.4156   -4.4970    0.0000 C   0  0  0  0  0  0  0  0  0  0  0  0
   -4.7917   -7.4314    0.0000 C   0  0  0  0  0  0  0  0  0  0  0  0
  1 15  1  0  0  0  0
  2 25  1  0  0  0  0
  3 28  1  0  0  0  0
  4 10  1  0  0  0  0
  4 12  1  0  0  0  0
  4 16  1  0  0  0  0
  5 11  1  0  0  0  0
  5 12  2  0  0  0  0
  6 13  2  0  0  0  0
  6 21  1  0  0  0  0
  7 15  2  0  0  0  0
  7 18  1  0  0  0  0
  8 21  2  0  0  0  0
  8 22  1  0  0  0  0
  9 21  1  0  0  0  0
  9 26  1  0  0  0  0
 10 11  2  0  0  0  0
 10 13  1  0  0  0  0
 11 14  1  0  0  0  0
 12 15  1  0  0  0  0
 13 17  1  0  0  0  0
 14 19  2  0  0  0  0
 14 20  1  0  0  0  0
 16 18  2  0  0  0  0
 17 22  2  0  0  0  0
 19 23  1  0  0  0  0
 20 24  2  0  0  0  0
 23 25  2  0  0  0  0
 24 25  1  0  0  0  0
 26 27  1  0  0  0  0
 27 28  1  0  0  0  0
 27 29  1  0  0  0  0
 27 30  1  0  0  0  0
M  END
> <Value>
5.899998417198648

> <Relation>
<

> <SourceURI>
mol:CHEMBL1969735

$$$$

Generated by Molecular Materials Informatics

 21 23  0  0  0  0  0  0  0  0999 V2000
    3.7200    3.3836    0.0000 O   0  0  0  0  0  0  0  0  0  0  0  0
    6.5017   -1.1046    0.0000 O   0  0  0  0  0  0  0  0  0  0  0  0
   -1.4696    3.2376    0.0000 O   0  0  0  0  0  0  0  0  0  0  0  0
   -2.8878    0.5939    0.0000 O   0  0  0  0  0  0  0  0  0  0  0  0
    3.1904   -1.8155    0.0000 N   0  0  0  0  0  0  0  0  0  0  0  0
    5.4664    1.3598    0.0000 N   0  0  0  0  0  0  0  0  0  0  0  0
    3.1093    0.7812    0.0000 C   0  0  0  0  0  0  0  0  0  0  0  0
    1.6100    0.7345    0.0000 C   0  0  0  0  0  0  0  0  0  0  0  0
    3.8995   -0.4937    0.0000 C   0  0  0  0  0  0  0  0  0  0  0  0
    0.9009   -0.5873    0.0000 C   0  0  0  0  0  0  0  0  0  0  0  0
    1.6911   -1.8624    0.0000 C   0  0  0  0  0  0  0  0  0  0  0  0
    4.0777    1.9268    0.0000 C   0  0  0  0  0  0  0  0  0  0  0  0
    5.3562   -0.1362    0.0000 C   0  0  0  0  0  0  0  0  0  0  0  0
    0.8199    2.0094    0.0000 C   0  0  0  0  0  0  0  0  0  0  0  0
   -0.5983   -0.6342    0.0000 C   0  0  0  0  0  0  0  0  0  0  0  0
   -0.6794    1.9625    0.0000 C   0  0  0  0  0  0  0  0  0  0  0  0
   -1.3885    0.6407    0.0000 C   0  0  0  0  0  0  0  0  0  0  0  0
    0.9820   -3.1842    0.0000 C   0  0  0  0  0  0  0  0  0  0  0  0
   -0.5172   -3.2310    0.0000 C   0  0  0  0  0  0  0  0  0  0  0  0
   -2.9689    3.1907    0.0000 C   0  0  0  0  0  0  0  0  0  0  0  0
   -3.5969   -0.7279    0.0000 C   0  0  0  0  0  0  0  0  0  0  0  0
  1 12  2  0  0  0  0
  2 13  2  0  0  0  0
  3 16  1  0  0  0  0
  3 20  1  0  0  0  0
  4 17  1  0  0  0  0
  4 21  1  0  0  0  0
  5  9  1  0  0  0  0
  5 11  2  0  0  0  0
  6 12  1  0  0  0  0
  6 13  1  0  0  0  0
  7  8  1  0  0  0  0
  7  9  2  0  0  0  0
  7 12  1  0  0  0  0
  8 10  1  0  0  0  0
  8 14  2  0  0  0  0
  9 13  1  0  0  0  0
 10 11  1  0  0  0  0
 10 15  2  0  0  0  0
 11 18  1  0  0  0  0
 14 16  1  0  0  0  0
 15 17  1  0  0  0  0
 16 17  2  0  0  0  0
 18 19  1  0  0  0  0
M  END
> <Value>
5.899998417198648

> <Relation>
<

> <SourceURI>
mol:CHEMBL2003524

$$$$

Generated by Molecular Materials Informatics

 18 20  0  0  0  0  0  0  0  0999 V2000
   -3.0376   -0.0629    0.0000 O   0  0  0  0  0  0  0  0  0  0  0  0
    4.6674   -1.5629    0.0000 O   0  0  0  0  0  0  0  0  0  0  0  0
   -0.6561    1.1505    0.0000 N   0  0  0  0  0  0  0  0  0  0  0  0
   -3.7015   -2.0112    0.0000 N   0  0  0  0  0  0  0  0  0  0  0  0
   -4.6887   -4.2284    0.0000 N   0  0  0  0  0  0  0  0  0  0  0  0
    0.7704   -0.8129    0.0000 C   0  0  0  0  0  0  0  0  0  0  0  0
   -0.6561   -1.2765    0.0000 C   0  0  0  0  0  0  0  0  0  0  0  0
    0.7704    0.6871    0.0000 C   0  0  0  0  0  0  0  0  0  0  0  0
   -1.5377   -0.0629    0.0000 C   0  0  0  0  0  0  0  0  0  0  0  0
    2.0695   -1.5629    0.0000 C   0  0  0  0  0  0  0  0  0  0  0  0
   -1.1195   -2.7030    0.0000 C   0  0  0  0  0  0  0  0  0  0  0  0
    2.0695    1.4371    0.0000 C   0  0  0  0  0  0  0  0  0  0  0  0
    3.3686   -0.8129    0.0000 C   0  0  0  0  0  0  0  0  0  0  0  0
   -2.5867   -3.0148    0.0000 C   0  0  0  0  0  0  0  0  0  0  0  0
    3.3686    0.6871    0.0000 C   0  0  0  0  0  0  0  0  0  0  0  0
   -3.1969   -4.3852    0.0000 C   0  0  0  0  0  0  0  0  0  0  0  0
   -5.0005   -2.7612    0.0000 C   0  0  0  0  0  0  0  0  0  0  0  0
    5.9665   -0.8129    0.0000 C   0  0  0  0  0  0  0  0  0  0  0  0
  1  9  2  0  0  0  0
  2 13  1  0  0  0  0
  2 18  1  0  0  0  0
  3  8  1  0  0  0  0
  3  9  1  0  0  0  0
  4 14  1  0  0  0  0
  4 17  2  0  0  0  0
  5 16  1  0  0  0  0
  5 17  1  0  0  0  0
  6  7  1  0  0  0  0
  6  8  1  0  0  0  0
  6 10  2  0  0  0  0
  7  9  1  0  0  0  0
  7 11  2  0  0  0  0
  8 12  2  0  0  0  0
 10 13  1  0  0  0  0
 11 14  1  0  0  0  0
 12 15  1  0  0  0  0
 13 15  2  0  0  0  0
 14 16  2  0  0  0  0
M  END
> <Value>
5.899998417198648

> <Relation>
<

> <SourceURI>
mol:CHEMBL2002649

$$$$

Generated by Molecular Materials Informatics

 24 27  0  0  0  0  0  0  0  0999 V2000
   -4.6828    2.7398    0.0000 Cl  0  0  0  0  0  0  0  0  0  0  0  0
   -0.2811    1.8043    0.0000 N   0  0  0  0  0  0  0  0  0  0  0  0
   -0.8213   -3.1640    0.0000 N   0  0  0  0  0  0  0  0  0  0  0  0
   -2.7520    1.0014    0.0000 N   0  0  0  0  0  0  0  0  0  0  0  0
    1.9043   -3.4506    0.0000 N   0  0  0  0  0  0  0  0  0  0  0  0
    0.2591    4.3456    0.0000 N   0  0  0  0  0  0  0  0  0  0  0  0
   -1.5951   10.0520    0.0000 N   0  0  0  0  0  0  0  0  0  0  0  0
   -0.8213   -0.7371    0.0000 C   0  0  0  0  0  0  0  0  0  0  0  0
    0.6053   -1.2006    0.0000 C   0  0  0  0  0  0  0  0  0  0  0  0
   -1.2849    0.6896    0.0000 C   0  0  0  0  0  0  0  0  0  0  0  0
    0.6053   -2.7006    0.0000 C   0  0  0  0  0  0  0  0  0  0  0  0
   -1.7029   -1.9506    0.0000 C   0  0  0  0  0  0  0  0  0  0  0  0
   -0.7448    3.2309    0.0000 C   0  0  0  0  0  0  0  0  0  0  0  0
    1.9043   -0.4506    0.0000 C   0  0  0  0  0  0  0  0  0  0  0  0
   -3.2157    2.4280    0.0000 C   0  0  0  0  0  0  0  0  0  0  0  0
   -2.2118    3.5427    0.0000 C   0  0  0  0  0  0  0  0  0  0  0  0
    3.2033   -1.2006    0.0000 C   0  0  0  0  0  0  0  0  0  0  0  0
   -0.2046    5.7722    0.0000 C   0  0  0  0  0  0  0  0  0  0  0  0
    3.2033   -2.7006    0.0000 C   0  0  0  0  0  0  0  0  0  0  0  0
   -1.6717    6.0840    0.0000 C   0  0  0  0  0  0  0  0  0  0  0  0
    0.7993    6.8869    0.0000 C   0  0  0  0  0  0  0  0  0  0  0  0
   -1.1317    8.6253    0.0000 C   0  0  0  0  0  0  0  0  0  0  0  0
   -2.1353    7.5105    0.0000 C   0  0  0  0  0  0  0  0  0  0  0  0
    0.3356    8.3134    0.0000 C   0  0  0  0  0  0  0  0  0  0  0  0
  1 15  1  0  0  0  0
  2 10  2  0  0  0  0
  2 13  1  0  0  0  0
  3 11  1  0  0  0  0
  3 12  1  0  0  0  0
  4 10  1  0  0  0  0
  4 15  2  0  0  0  0
  5 11  2  0  0  0  0
  5 19  1  0  0  0  0
  6 13  1  0  0  0  0
  6 18  1  0  0  0  0
  7 22  1  0  0  0  0
  8  9  1  0  0  0  0
  8 10  1  0  0  0  0
  8 12  2  0  0  0  0
  9 11  1  0  0  0  0
  9 14  2  0  0  0  0
 13 16  2  0  0  0  0
 14 17  1  0  0  0  0
 15 16  1  0  0  0  0
 17 19  2  0  0  0  0
 18 20  1  0  0  0  0
 18 21  1  0  0  0  0
 20 23  1  0  0  0  0
 21 24  1  0  0  0  0
 22 23  1  0  0  0  0
 22 24  1  0  0  0  0
M  END
> <Value>
6.799998134593398

> <Relation>
=

> <SourceURI>
mol:CHEMBL1983589

$$$$

Generated by Molecular Materials Informatics

 12 14  0  0  0  0  0  0  0  0999 V2000
    3.9874    1.8046    0.0000 N   0  0  0  0  0  0  0  0  0  0  0  0
    5.2181    0.9470    0.0000 N   0  0  0  0  0  0  0  0  0  0  0  0
    2.7915    0.8992    0.0000 C   0  0  0  0  0  0  0  0  0  0  0  0
    1.2918    0.8695    0.0000 C   0  0  0  0  0  0  0  0  0  0  0  0
    3.2831   -0.5181    0.0000 C   0  0  0  0  0  0  0  0  0  0  0  0
    0.8566   -0.5659    0.0000 C   0  0  0  0  0  0  0  0  0  0  0  0
    2.0873   -1.4235    0.0000 C   0  0  0  0  0  0  0  0  0  0  0  0
    4.7827   -0.4885    0.0000 C   0  0  0  0  0  0  0  0  0  0  0  0
    0.2664    1.9642    0.0000 C   0  0  0  0  0  0  0  0  0  0  0  0
   -0.6043   -0.9066    0.0000 C   0  0  0  0  0  0  0  0  0  0  0  0
   -1.1943    1.6235    0.0000 C   0  0  0  0  0  0  0  0  0  0  0  0
   -1.6297    0.1881    0.0000 C   0  0  0  0  0  0  0  0  0  0  0  0
  1  2  1  0  0  0  0
  1  3  2  0  0  0  0
  2  8  1  0  0  0  0
  3  4  1  0  0  0  0
  3  5  1  0  0  0  0
  4  6  1  0  0  0  0
  4  9  2  0  0  0  0
  5  7  1  0  0  0  0
  5  8  2  0  0  0  0
  6  7  1  0  0  0  0
  6 10  2  0  0  0  0
  9 11  1  0  0  0  0
 10 12  1  0  0  0  0
 11 12  2  0  0  0  0
M  END
> <Value>
4.499999953328896

> <Relation>
=

> <SourceURI>
mol:CHEMBL1989423

$$$$

Generated by Molecular Materials Informatics

 21 23  0  0  0  0  0  0  0  0999 V2000
    2.0134   -1.8187    0.0000 N   0  0  0  0  0  0  0  0  0  0  0  0
    0.7145   -4.0687    0.0000 N   0  0  0  0  0  0  0  0  0  0  0  0
    0.7145    0.4312    0.0000 N   0  0  0  0  0  0  0  0  0  0  0  0
   -0.5846    2.6811    0.0000 N   0  0  0  0  0  0  0  0  0  0  0  0
    2.0134   -3.3187    0.0000 C   0  0  0  0  0  0  0  0  0  0  0  0
    0.7145   -1.0688    0.0000 C   0  0  0  0  0  0  0  0  0  0  0  0
    3.3124   -4.0687    0.0000 C   0  0  0  0  0  0  0  0  0  0  0  0
   -0.5846   -3.3187    0.0000 C   0  0  0  0  0  0  0  0  0  0  0  0
   -0.5846   -1.8187    0.0000 C   0  0  0  0  0  0  0  0  0  0  0  0
   -0.5846    1.1812    0.0000 C   0  0  0  0  0  0  0  0  0  0  0  0
    4.6115   -3.3187    0.0000 C   0  0  0  0  0  0  0  0  0  0  0  0
    3.3124   -5.5686    0.0000 C   0  0  0  0  0  0  0  0  0  0  0  0
   -1.8836    0.4312    0.0000 C   0  0  0  0  0  0  0  0  0  0  0  0
   -3.1825    1.1812    0.0000 C   0  0  0  0  0  0  0  0  0  0  0  0
   -1.8836    3.4311    0.0000 C   0  0  0  0  0  0  0  0  0  0  0  0
   -1.8836   -4.0687    0.0000 C   0  0  0  0  0  0  0  0  0  0  0  0
   -3.1825    2.6811    0.0000 C   0  0  0  0  0  0  0  0  0  0  0  0
    5.9105   -4.0687    0.0000 C   0  0  0  0  0  0  0  0  0  0  0  0
    4.6115   -6.3186    0.0000 C   0  0  0  0  0  0  0  0  0  0  0  0
    5.9105   -5.5686    0.0000 C   0  0  0  0  0  0  0  0  0  0  0  0
   -4.4815    0.4312    0.0000 C   0  0  0  0  0  0  0  0  0  0  0  0
  1  5  2  0  0  0  0
  1  6  1  0  0  0  0
  2  5  1  0  0  0  0
  2  8  2  0  0  0  0
  3  6  1  0  0  0  0
  3 10  1  0  0  0  0
  4 10  1  0  0  0  0
  4 15  2  0  0  0  0
  5  7  1  0  0  0  0
  6  9  2  0  0  0  0
  7 11  2  0  0  0  0
  7 12  1  0  0  0  0
  8  9  1  0  0  0  0
  8 16  1  0  0  0  0
 10 13  2  0  0  0  0
 11 18  1  0  0  0  0
 12 19  2  0  0  0  0
 13 14  1  0  0  0  0
 14 17  2  0  0  0  0
 14 21  1  0  0  0  0
 15 17  1  0  0  0  0
 18 20  2  0  0  0  0
 19 20  1  0  0  0  0
M  END
> <Value>
5.300000202445418

> <Relation>
<

> <SourceURI>
mol:CHEMBL1985367

$$$$

Generated by Molecular Materials Informatics

 36 41  0  0  0  0  0  0  0  0999 V2000
   -2.8056   -3.4063    0.0000 C   0  0  0  0  0  0  0  0  0  0  0  0
   -2.0966   -2.0845    0.0000 C   0  0  0  0  0  0  0  0  0  0  0  0
   -2.8867   -0.8094    0.0000 C   0  0  0  0  0  0  0  0  0  0  0  0
   -2.1776    0.5124    0.0000 C   0  0  0  0  0  0  0  0  0  0  0  0
   -2.9680    1.7873    0.0000 C   0  0  0  0  0  0  0  0  0  0  0  0
   -2.2589    3.1091    0.0000 C   0  0  0  0  0  0  0  0  0  0  0  0
   -3.0491    4.3842    0.0000 C   0  0  0  0  0  0  0  0  0  0  0  0
   -4.5484    4.3373    0.0000 C   0  0  0  0  0  0  0  0  0  0  0  0
   -5.2575    3.0155    0.0000 C   0  0  0  0  0  0  0  0  0  0  0  0
   -4.4673    1.7404    0.0000 C   0  0  0  0  0  0  0  0  0  0  0  0
   -5.1762    0.4186    0.0000 N   0  0  0  0  0  0  0  0  0  0  0  0
   -4.3860   -0.8563    0.0000 C   0  0  0  0  0  0  0  0  0  0  0  0
    0.1929   -3.3127    0.0000 C   0  0  0  0  0  0  0  0  0  0  0  0
    1.6922   -3.2658    0.0000 C   0  0  0  0  0  0  0  0  0  0  0  0
    2.6605   -2.1203    0.0000 N   0  0  0  0  0  0  0  0  0  0  0  0
    2.4823   -4.5407    0.0000 C   0  0  0  0  0  0  0  0  0  0  0  0
    1.7733   -5.8625    0.0000 C   0  0  0  0  0  0  0  0  0  0  0  0
    0.2740   -5.9094    0.0000 N   0  0  0  0  0  0  0  0  0  0  0  0
   -0.5162   -4.6345    0.0000 C   0  0  0  0  0  0  0  0  0  0  0  0
   -2.0155   -4.6812    0.0000 C   0  0  0  0  0  0  0  0  0  0  0  0
   -0.5973   -2.0376    0.0000 C   0  0  0  0  0  0  0  0  0  0  0  0
    4.0492   -2.6872    0.0000 C   0  0  0  0  0  0  0  0  0  0  0  0
    5.3242   -1.8970    0.0000 O   0  0  0  0  0  0  0  0  0  0  0  0
    3.3858    0.3746    0.0000 C   0  0  0  0  0  0  0  0  0  0  0  0
    2.3031   -0.6634    0.0000 C   0  0  0  0  0  0  0  0  0  0  0  0
    3.0283    1.8313    0.0000 C   0  0  0  0  0  0  0  0  0  0  0  0
    1.5880    2.2500    0.0000 C   0  0  0  0  0  0  0  0  0  0  0  0
    1.2303    3.7068    0.0000 C   0  0  0  0  0  0  0  0  0  0  0  0
    2.6873    4.0644    0.0000 C   0  0  0  0  0  0  0  0  0  0  0  0
   -0.2264    3.3493    0.0000 C   0  0  0  0  0  0  0  0  0  0  0  0
    0.5051    1.2120    0.0000 C   0  0  0  0  0  0  0  0  0  0  0  0
    0.8627   -0.2447    0.0000 C   0  0  0  0  0  0  0  0  0  0  0  0
    0.8729    5.1637    0.0000 C   0  0  0  0  0  0  0  0  0  0  0  0
    3.9391   -4.1832    0.0000 N   0  0  0  0  0  0  0  0  0  0  0  0
    5.0847   -5.1516    0.0000 C   0  0  0  0  0  0  0  0  0  0  0  0
    0.5153    6.6204    0.0000 N   0  0  0  0  0  0  0  0  0  0  0  0
  1  2  2  0  0  0  0
  1 20  1  0  0  0  0
  2 21  1  0  0  0  0
  3  2  1  0  0  0  0
  4  3  2  0  0  0  0
  5  4  1  0  0  0  0
  6  5  2  0  0  0  0
  7  6  1  0  0  0  0
  8  7  2  0  0  0  0
  8  9  1  0  0  0  0
  9 10  2  0  0  0  0
 10 11  1  0  0  0  0
 10  5  1  0  0  0  0
 11 12  2  0  0  0  0
 12  3  1  0  0  0  0
 13 14  1  0  0  0  0
 13 19  1  0  0  0  0
 14 16  2  0  0  0  0
 15 14  1  0  0  0  0
 15 22  1  0  0  0  0
 16 17  1  0  0  0  0
 18 17  2  0  0  0  0
 19 18  1  0  0  0  0
 20 19  2  0  0  0  0
 21 13  2  0  0  0  0
 22 23  2  0  0  0  0
 24 25  2  0  0  0  0
 24 26  1  0  0  0  0
 25 15  1  0  0  0  0
 26 27  2  0  0  0  0
 27 28  1  0  0  0  0
 27 31  1  0  0  0  0
 29 28  1  0  0  0  0
 30 28  1  0  0  0  0
 31 32  2  0  0  0  0
 32 25  1  0  0  0  0
 28 33  1  0  0  0  0
 16 34  1  0  0  0  0
 34 22  1  0  0  0  0
 34 35  1  0  0  0  0
 33 36  3  0  0  0  0
M  END
> <Value>
5.300000202445418

> <Relation>
<

> <SourceURI>
mol:CHEMBL1879463

$$$$

Generated by Molecular Materials Informatics

 35 39  0  0  0  0  0  0  0  0999 V2000
    0.6165    0.9008    0.0000 N   0  0  0  0  0  0  0  0  0  0  0  0
    1.8302    1.7824    0.0000 C   0  0  0  0  0  0  0  0  0  0  0  0
    3.0436    0.9008    0.0000 N   0  0  0  0  0  0  0  0  0  0  0  0
    2.5802   -0.5260    0.0000 C   0  0  0  0  0  0  0  0  0  0  0  0
    1.0802   -0.5260    0.0000 C   0  0  0  0  0  0  0  0  0  0  0  0
   -0.8100    1.3642    0.0000 C   0  0  0  0  0  0  0  0  0  0  0  0
   -1.1218    2.8315    0.0000 C   0  0  0  0  0  0  0  0  0  0  0  0
   -2.5485    3.2949    0.0000 C   0  0  0  0  0  0  0  0  0  0  0  0
    1.8302    3.2824    0.0000 C   0  0  0  0  0  0  0  0  0  0  0  0
    0.5311    4.0324    0.0000 C   0  0  0  0  0  0  0  0  0  0  0  0
    0.5311    5.5324    0.0000 C   0  0  0  0  0  0  0  0  0  0  0  0
    1.8302    6.2824    0.0000 N   0  0  0  0  0  0  0  0  0  0  0  0
    3.1291    5.5324    0.0000 C   0  0  0  0  0  0  0  0  0  0  0  0
    3.1291    4.0324    0.0000 C   0  0  0  0  0  0  0  0  0  0  0  0
    3.4618   -1.7394    0.0000 C   0  0  0  0  0  0  0  0  0  0  0  0
    0.1984   -1.7394    0.0000 C   0  0  0  0  0  0  0  0  0  0  0  0
    2.8516   -3.1098    0.0000 C   0  0  0  0  0  0  0  0  0  0  0  0
    3.7333   -4.3232    0.0000 C   0  0  0  0  0  0  0  0  0  0  0  0
    5.2251   -4.1665    0.0000 C   0  0  0  0  0  0  0  0  0  0  0  0
    5.8353   -2.7961    0.0000 C   0  0  0  0  0  0  0  0  0  0  0  0
    4.9536   -1.5827    0.0000 C   0  0  0  0  0  0  0  0  0  0  0  0
    3.1233   -5.6936    0.0000 Cl  0  0  0  0  0  0  0  0  0  0  0  0
    6.1067   -5.3800    0.0000 Cl  0  0  0  0  0  0  0  0  0  0  0  0
    0.8085   -3.1098    0.0000 C   0  0  0  0  0  0  0  0  0  0  0  0
   -0.0731   -4.3232    0.0000 C   0  0  0  0  0  0  0  0  0  0  0  0
   -1.5649   -4.1665    0.0000 N   0  0  0  0  0  0  0  0  0  0  0  0
   -2.1751   -2.7961    0.0000 C   0  0  0  0  0  0  0  0  0  0  0  0
   -1.2933   -1.5827    0.0000 N   0  0  0  0  0  0  0  0  0  0  0  0
   -3.6669   -2.6394    0.0000 N   0  0  0  0  0  0  0  0  0  0  0  0
   -4.2769   -1.2691    0.0000 C   0  0  0  0  0  0  0  0  0  0  0  0
   -5.7687   -1.1123    0.0000 C   0  0  0  0  0  0  0  0  0  0  0  0
   -6.3787    0.2580    0.0000 C   0  0  0  0  0  0  0  0  0  0  0  0
   -5.4971    1.4715    0.0000 C   0  0  0  0  0  0  0  0  0  0  0  0
   -4.0053    1.3148    0.0000 C   0  0  0  0  0  0  0  0  0  0  0  0
   -3.3953   -0.0556    0.0000 C   0  0  0  0  0  0  0  0  0  0  0  0
  2  1  1  0  0  0  0
  5  1  1  0  0  0  0
  6  1  1  0  0  0  0
  2  3  2  0  0  0  0
  9  2  1  0  0  0  0
  4  3  1  0  0  0  0
  4  5  2  0  0  0  0
 15  4  1  0  0  0  0
 16  5  1  0  0  0  0
  6  7  1  0  0  0  0
  8  7  1  0  0  0  0
  9 10  1  0  0  0  0
  9 14  1  0  0  0  0
 10 11  1  0  0  0  0
 11 12  1  0  0  0  0
 13 12  1  0  0  0  0
 13 14  1  0  0  0  0
 15 17  2  0  0  0  0
 15 21  1  0  0  0  0
 16 24  2  0  0  0  0
 16 28  1  0  0  0  0
 17 18  1  0  0  0  0
 18 19  2  0  0  0  0
 18 22  1  0  0  0  0
 19 20  1  0  0  0  0
 19 23  1  0  0  0  0
 20 21  2  0  0  0  0
 24 25  1  0  0  0  0
 25 26  2  0  0  0  0
 27 26  1  0  0  0  0
 27 28  2  0  0  0  0
 27 29  1  0  0  0  0
 30 29  1  0  0  0  0
 30 31  1  0  0  0  0
 30 35  1  0  0  0  0
 31 32  1  0  0  0  0
 32 33  1  0  0  0  0
 33 34  1  0  0  0  0
 34 35  1  0  0  0  0
M  END
> <Value>
6.499996931948306

> <Relation>
=

> <SourceURI>
mol:CHEMBL437747

$$$$

Generated by Molecular Materials Informatics

 24 26  0  0  0  0  0  0  0  0999 V2000
   -4.6828    2.6293    0.0000 Cl  0  0  0  0  0  0  0  0  0  0  0  0
    1.3394    9.3177    0.0000 S   0  0  0  0  0  0  0  0  0  0  0  0
    2.3431   10.4324    0.0000 O   0  0  0  0  0  0  0  0  0  0  0  0
    0.2247   10.3214    0.0000 O   0  0  0  0  0  0  0  0  0  0  0  0
   -0.8213   -3.2745    0.0000 N   0  0  0  0  0  0  0  0  0  0  0  0
    1.9043   -3.5610    0.0000 N   0  0  0  0  0  0  0  0  0  0  0  0
   -2.2118    3.4322    0.0000 N   0  0  0  0  0  0  0  0  0  0  0  0
    0.2591    4.2352    0.0000 N   0  0  0  0  0  0  0  0  0  0  0  0
    0.3356    8.2030    0.0000 N   0  0  0  0  0  0  0  0  0  0  0  0
   -0.8213   -0.8476    0.0000 C   0  0  0  0  0  0  0  0  0  0  0  0
    0.6053   -1.3110    0.0000 C   0  0  0  0  0  0  0  0  0  0  0  0
   -1.2849    0.5791    0.0000 C   0  0  0  0  0  0  0  0  0  0  0  0
    0.6053   -2.8110    0.0000 C   0  0  0  0  0  0  0  0  0  0  0  0
   -1.7029   -2.0610    0.0000 C   0  0  0  0  0  0  0  0  0  0  0  0
   -0.2811    1.6939    0.0000 C   0  0  0  0  0  0  0  0  0  0  0  0
   -2.7520    0.8910    0.0000 C   0  0  0  0  0  0  0  0  0  0  0  0
   -0.7448    3.1204    0.0000 C   0  0  0  0  0  0  0  0  0  0  0  0
    1.9043   -0.5610    0.0000 C   0  0  0  0  0  0  0  0  0  0  0  0
   -3.2157    2.3175    0.0000 C   0  0  0  0  0  0  0  0  0  0  0  0
    3.2033   -1.3110    0.0000 C   0  0  0  0  0  0  0  0  0  0  0  0
    3.2033   -2.8110    0.0000 C   0  0  0  0  0  0  0  0  0  0  0  0
   -0.2046    5.6617    0.0000 C   0  0  0  0  0  0  0  0  0  0  0  0
    0.7993    6.7764    0.0000 C   0  0  0  0  0  0  0  0  0  0  0  0
    2.4540    8.3141    0.0000 C   0  0  0  0  0  0  0  0  0  0  0  0
  1 19  1  0  0  0  0
  2  3  2  0  0  0  0
  2  4  2  0  0  0  0
  2  9  1  0  0  0  0
  2 24  1  0  0  0  0
  5 13  1  0  0  0  0
  5 14  1  0  0  0  0
  6 13  2  0  0  0  0
  6 21  1  0  0  0  0
  7 17  1  0  0  0  0
  7 19  2  0  0  0  0
  8 17  1  0  0  0  0
  8 22  1  0  0  0  0
  9 23  1  0  0  0  0
 10 11  1  0  0  0  0
 10 12  1  0  0  0  0
 10 14  2  0  0  0  0
 11 13  1  0  0  0  0
 11 18  2  0  0  0  0
 12 15  1  0  0  0  0
 12 16  2  0  0  0  0
 15 17  2  0  0  0  0
 16 19  1  0  0  0  0
 18 20  1  0  0  0  0
 20 21  2  0  0  0  0
 22 23  1  0  0  0  0
M  END
> <Value>
7.299988937677887

> <Relation>
=

> <SourceURI>
mol:CHEMBL2005718

$$$$

Generated by Molecular Materials Informatics

 13 15  0  0  0  0  0  0  0  0999 V2000
   -2.0871    2.5485    0.0000 Br  0  0  0  0  0  0  0  0  0  0  0  0
    4.1202    1.6349    0.0000 N   0  0  0  0  0  0  0  0  0  0  0  0
    5.3509    0.7773    0.0000 N   0  0  0  0  0  0  0  0  0  0  0  0
    2.9242    0.7295    0.0000 C   0  0  0  0  0  0  0  0  0  0  0  0
    1.4246    0.6999    0.0000 C   0  0  0  0  0  0  0  0  0  0  0  0
    3.4158   -0.6877    0.0000 C   0  0  0  0  0  0  0  0  0  0  0  0
    0.9894   -0.7355    0.0000 C   0  0  0  0  0  0  0  0  0  0  0  0
    2.2201   -1.5931    0.0000 C   0  0  0  0  0  0  0  0  0  0  0  0
    0.3992    1.7946    0.0000 C   0  0  0  0  0  0  0  0  0  0  0  0
    4.9154   -0.6581    0.0000 C   0  0  0  0  0  0  0  0  0  0  0  0
   -0.4715   -1.0762    0.0000 C   0  0  0  0  0  0  0  0  0  0  0  0
   -1.0615    1.4538    0.0000 C   0  0  0  0  0  0  0  0  0  0  0  0
   -1.4969    0.0184    0.0000 C   0  0  0  0  0  0  0  0  0  0  0  0
  1 12  1  0  0  0  0
  2  3  1  0  0  0  0
  2  4  1  0  0  0  0
  3 10  2  0  0  0  0
  4  5  1  0  0  0  0
  4  6  2  0  0  0  0
  5  7  1  0  0  0  0
  5  9  2  0  0  0  0
  6  8  1  0  0  0  0
  6 10  1  0  0  0  0
  7  8  1  0  0  0  0
  7 11  2  0  0  0  0
  9 12  1  0  0  0  0
 11 13  1  0  0  0  0
 12 13  2  0  0  0  0
M  END
> <Value>
5.300000202445418

> <Relation>
<

> <SourceURI>
mol:CHEMBL1995172

$$$$

Generated by Molecular Materials Informatics

 44 48  0  0  0  0  0  0  0  0999 V2000
   -2.4357   -7.7250    0.0000 O   0  0  0  0  0  0  0  0  0  0  0  0
    0.1623   -3.2250    0.0000 O   0  0  0  0  0  0  0  0  0  0  0  0
    1.4614   -0.9750    0.0000 O   0  0  0  0  0  0  0  0  0  0  0  0
   -8.9309   -6.9750    0.0000 O   0  0  0  0  0  0  0  0  0  0  0  0
   -7.6318  -12.2250    0.0000 O   0  0  0  0  0  0  0  0  0  0  0  0
    0.1623   -7.7250    0.0000 N   0  0  0  0  0  0  0  0  0  0  0  0
   -2.4357   -4.7250    0.0000 N   0  0  0  0  0  0  0  0  0  0  0  0
    4.0594   -0.9750    0.0000 N   0  0  0  0  0  0  0  0  0  0  0  0
   -5.0338   -4.7250    0.0000 N   0  0  0  0  0  0  0  0  0  0  0  0
   -7.6318   -9.2250    0.0000 N   0  0  0  0  0  0  0  0  0  0  0  0
    2.7605   -4.7250    0.0000 C   0  0  0  0  0  0  0  0  0  0  0  0
    1.4614   -5.4750    0.0000 C   0  0  0  0  0  0  0  0  0  0  0  0
    2.7605   -3.2250    0.0000 C   0  0  0  0  0  0  0  0  0  0  0  0
   -1.1366   -5.4750    0.0000 C   0  0  0  0  0  0  0  0  0  0  0  0
    4.0594   -2.4750    0.0000 C   0  0  0  0  0  0  0  0  0  0  0  0
   -1.1366   -6.9750    0.0000 C   0  0  0  0  0  0  0  0  0  0  0  0
    0.1623   -4.7250    0.0000 C   0  0  0  0  0  0  0  0  0  0  0  0
    1.4614   -6.9750    0.0000 C   0  0  0  0  0  0  0  0  0  0  0  0
    4.0594   -5.4750    0.0000 C   0  0  0  0  0  0  0  0  0  0  0  0
    5.3585   -3.2250    0.0000 C   0  0  0  0  0  0  0  0  0  0  0  0
   -3.7347   -5.4750    0.0000 C   0  0  0  0  0  0  0  0  0  0  0  0
    1.4614   -2.4750    0.0000 C   0  0  0  0  0  0  0  0  0  0  0  0
    5.3585   -4.7250    0.0000 C   0  0  0  0  0  0  0  0  0  0  0  0
    2.7605   -0.2250    0.0000 C   0  0  0  0  0  0  0  0  0  0  0  0
    2.7605    1.2750    0.0000 C   0  0  0  0  0  0  0  0  0  0  0  0
   -6.3327   -6.9750    0.0000 C   0  0  0  0  0  0  0  0  0  0  0  0
   -7.6318   -7.7250    0.0000 C   0  0  0  0  0  0  0  0  0  0  0  0
   -3.7347   -6.9750    0.0000 C   0  0  0  0  0  0  0  0  0  0  0  0
    0.1623   -9.2250    0.0000 C   0  0  0  0  0  0  0  0  0  0  0  0
   -6.3327   -5.4750    0.0000 C   0  0  0  0  0  0  0  0  0  0  0  0
   -5.0338   -7.7250    0.0000 C   0  0  0  0  0  0  0  0  0  0  0  0
    2.7605    4.2750    0.0000 C   0  0  0  0  0  0  0  0  0  0  0  0
    1.4614    2.0250    0.0000 C   0  0  0  0  0  0  0  0  0  0  0  0
    4.0594    2.0250    0.0000 C   0  0  0  0  0  0  0  0  0  0  0  0
    2.7605    5.7750    0.0000 C   0  0  0  0  0  0  0  0  0  0  0  0
    1.4614    3.5250    0.0000 C   0  0  0  0  0  0  0  0  0  0  0  0
    4.0594    3.5250    0.0000 C   0  0  0  0  0  0  0  0  0  0  0  0
   -8.9309   -9.9750    0.0000 C   0  0  0  0  0  0  0  0  0  0  0  0
   -6.3327   -9.9750    0.0000 C   0  0  0  0  0  0  0  0  0  0  0  0
    2.7605    7.2750    0.0000 C   0  0  0  0  0  0  0  0  0  0  0  0
    4.2605    5.7750    0.0000 C   0  0  0  0  0  0  0  0  0  0  0  0
    1.2605    5.7750    0.0000 C   0  0  0  0  0  0  0  0  0  0  0  0
   -8.9309  -11.4750    0.0000 C   0  0  0  0  0  0  0  0  0  0  0  0
   -6.3327  -11.4750    0.0000 C   0  0  0  0  0  0  0  0  0  0  0  0
  1 16  2  0  0  0  0
  2 22  1  0  0  0  0
  3 24  2  0  0  0  0
  4 27  2  0  0  0  0
  5 43  1  0  0  0  0
  5 44  1  0  0  0  0
  6 16  1  0  0  0  0
  6 18  1  0  0  0  0
  6 29  1  0  0  0  0
  7 14  1  0  0  0  0
  7 21  1  0  0  0  0
  8 15  1  0  0  0  0
  8 24  1  0  0  0  0
  9 21  1  0  0  0  0
  9 30  2  0  0  0  0
 10 27  1  0  0  0  0
 10 38  1  0  0  0  0
 10 39  1  0  0  0  0
 11 12  1  0  0  0  0
 11 13  1  0  0  0  0
 11 19  2  0  0  0  0
 12 17  1  0  0  0  0
 12 18  2  0  0  0  0
 13 15  2  0  0  0  0
 13 22  1  0  0  0  0
 14 16  1  0  0  0  0
 14 17  2  0  0  0  0
 15 20  1  0  0  0  0
 19 23  1  0  0  0  0
 20 23  2  0  0  0  0
 21 28  2  0  0  0  0
 24 25  1  0  0  0  0
 25 33  2  0  0  0  0
 25 34  1  0  0  0  0
 26 27  1  0  0  0  0
 26 30  1  0  0  0  0
 26 31  2  0  0  0  0
 28 31  1  0  0  0  0
 32 35  1  0  0  0  0
 32 36  2  0  0  0  0
 32 37  1  0  0  0  0
 33 36  1  0  0  0  0
 34 37  2  0  0  0  0
 35 40  1  0  0  0  0
 35 41  1  0  0  0  0
 35 42  1  0  0  0  0
 38 43  1  0  0  0  0
 39 44  1  0  0  0  0
M  END
> <Value>
5.300000202445418

> <Relation>
<

> <SourceURI>
mol:CHEMBL2001584

$$$$

Generated by Molecular Materials Informatics

 28 31  0  0  0  0  0  0  0  0999 V2000
   -9.4198    1.2399    0.0000 C   0  0  0  0  0  0  0  0  0  0  0  0
   -9.4220   -0.2645    0.0000 C   0  0  0  0  0  0  0  0  0  0  0  0
   -8.1223   -1.0152    0.0000 N   0  0  0  0  0  0  0  0  0  0  0  0
   -8.1256    1.9903    0.0000 N   0  0  0  0  0  0  0  0  0  0  0  0
   -6.8249    1.2464    0.0000 C   0  0  0  0  0  0  0  0  0  0  0  0
   -6.8234   -0.2568    0.0000 C   0  0  0  0  0  0  0  0  0  0  0  0
   -5.5229   -1.0041    0.0000 C   0  0  0  0  0  0  0  0  0  0  0  0
   -4.2229   -0.2499    0.0000 C   0  0  0  0  0  0  0  0  0  0  0  0
   -4.2316    1.2590    0.0000 C   0  0  0  0  0  0  0  0  0  0  0  0
   -5.5332    1.9995    0.0000 C   0  0  0  0  0  0  0  0  0  0  0  0
   -2.9425    2.0137    0.0000 C   0  0  0  0  0  0  0  0  0  0  0  0
   -1.6385    1.2686    0.0000 C   0  0  0  0  0  0  0  0  0  0  0  0
   -0.3448    2.0252    0.0000 C   0  0  0  0  0  0  0  0  0  0  0  0
   -0.3532    3.5268    0.0000 C   0  0  0  0  0  0  0  0  0  0  0  0
   -1.6659    4.2685    0.0000 C   0  0  0  0  0  0  0  0  0  0  0  0
   -2.9541    3.5075    0.0000 C   0  0  0  0  0  0  0  0  0  0  0  0
    0.9403    4.2865    0.0000 N   0  0  0  0  0  0  0  0  0  0  0  0
    2.2448    3.5461    0.0000 C   0  0  0  0  0  0  0  0  0  0  0  0
    3.5383    4.3057    0.0000 N   0  0  0  0  0  0  0  0  0  0  0  0
    2.2559    2.0461    0.0000 O   0  0  0  0  0  0  0  0  0  0  0  0
    4.8428    3.5654    0.0000 C   0  0  0  0  0  0  0  0  0  0  0  0
    4.8465    2.0635    0.0000 C   0  0  0  0  0  0  0  0  0  0  0  0
    6.1496    1.3234    0.0000 C   0  0  0  0  0  0  0  0  0  0  0  0
    7.4448    2.0830    0.0000 C   0  0  0  0  0  0  0  0  0  0  0  0
    7.4288    3.5908    0.0000 C   0  0  0  0  0  0  0  0  0  0  0  0
    6.1247    4.3243    0.0000 C   0  0  0  0  0  0  0  0  0  0  0  0
    8.7196    4.3550    0.0000 C   0  0  0  0  0  0  0  0  0  0  0  0
   -5.5410    3.4994    0.0000 N   0  0  0  0  0  0  0  0  0  0  0  0
 13 14  2  0  0  0  0
  6  7  1  0  0  0  0
 14 15  1  0  0  0  0
  1  2  2  0  0  0  0
 15 16  2  0  0  0  0
 16 11  1  0  0  0  0
  9 11  1  0  0  0  0
  7  8  2  0  0  0  0
 14 17  1  0  0  0  0
  5  4  2  0  0  0  0
 17 18  1  0  0  0  0
  8  9  1  0  0  0  0
 18 19  1  0  0  0  0
  4  1  1  0  0  0  0
 18 20  2  0  0  0  0
  9 10  2  0  0  0  0
 19 21  1  0  0  0  0
 10  5  1  0  0  0  0
 21 22  2  0  0  0  0
 22 23  1  0  0  0  0
  2  3  1  0  0  0  0
 23 24  2  0  0  0  0
 11 12  2  0  0  0  0
 24 25  1  0  0  0  0
  5  6  1  0  0  0  0
 25 26  2  0  0  0  0
 26 21  1  0  0  0  0
 12 13  1  0  0  0  0
 25 27  1  0  0  0  0
  3  6  2  0  0  0  0
 10 28  1  0  0  0  0
M  END
> <Value>
5.899998417198648

> <Relation>
<

> <SourceURI>
mol:CHEMBL507936

$$$$

Generated by Molecular Materials Informatics

 27 29  0  0  0  0  0  0  0  0999 V2000
    8.6386  -10.9688    0.0000 Br  0  0  0  0  0  0  0  0  0  0  0  0
   -0.4546    0.2813    0.0000 S   0  0  0  0  0  0  0  0  0  0  0  0
    1.0454    0.2813    0.0000 O   0  0  0  0  0  0  0  0  0  0  0  0
   -1.9546    0.2813    0.0000 O   0  0  0  0  0  0  0  0  0  0  0  0
   -0.4546   -1.2188    0.0000 N   0  0  0  0  0  0  0  0  0  0  0  0
   -4.3517    4.0313    0.0000 N   0  0  0  0  0  0  0  0  0  0  0  0
    2.1434   -4.2188    0.0000 N   0  0  0  0  0  0  0  0  0  0  0  0
   -0.4546    1.7813    0.0000 C   0  0  0  0  0  0  0  0  0  0  0  0
   -1.7537    2.5312    0.0000 C   0  0  0  0  0  0  0  0  0  0  0  0
   -1.7537    4.0313    0.0000 C   0  0  0  0  0  0  0  0  0  0  0  0
    0.8443    2.5312    0.0000 C   0  0  0  0  0  0  0  0  0  0  0  0
   -3.0528    1.7813    0.0000 C   0  0  0  0  0  0  0  0  0  0  0  0
   -0.4546    4.7813    0.0000 C   0  0  0  0  0  0  0  0  0  0  0  0
   -3.0528    4.7813    0.0000 C   0  0  0  0  0  0  0  0  0  0  0  0
    0.8443    4.0313    0.0000 C   0  0  0  0  0  0  0  0  0  0  0  0
   -4.3517    2.5312    0.0000 C   0  0  0  0  0  0  0  0  0  0  0  0
    0.8443   -1.9687    0.0000 C   0  0  0  0  0  0  0  0  0  0  0  0
    0.8443   -3.4688    0.0000 C   0  0  0  0  0  0  0  0  0  0  0  0
    4.7415   -8.7188    0.0000 C   0  0  0  0  0  0  0  0  0  0  0  0
    7.3395  -10.2188    0.0000 C   0  0  0  0  0  0  0  0  0  0  0  0
    6.0405   -7.9688    0.0000 C   0  0  0  0  0  0  0  0  0  0  0  0
    4.7415  -10.2188    0.0000 C   0  0  0  0  0  0  0  0  0  0  0  0
    3.4425   -7.9688    0.0000 C   0  0  0  0  0  0  0  0  0  0  0  0
    7.3395   -8.7188    0.0000 C   0  0  0  0  0  0  0  0  0  0  0  0
    6.0405  -10.9688    0.0000 C   0  0  0  0  0  0  0  0  0  0  0  0
    2.1434   -5.7188    0.0000 C   0  0  0  0  0  0  0  0  0  0  0  0
    3.4425   -6.4688    0.0000 C   0  0  0  0  0  0  0  0  0  0  0  0
  1 20  1  0  0  0  0
  2  3  2  0  0  0  0
  2  4  2  0  0  0  0
  2  5  1  0  0  0  0
  2  8  1  0  0  0  0
  5 17  1  0  0  0  0
  6 14  1  0  0  0  0
  6 16  2  0  0  0  0
  7 18  1  0  0  0  0
  7 26  1  0  0  0  0
  8  9  1  0  0  0  0
  8 11  2  0  0  0  0
  9 10  1  0  0  0  0
  9 12  2  0  0  0  0
 10 13  1  0  0  0  0
 10 14  2  0  0  0  0
 11 15  1  0  0  0  0
 12 16  1  0  0  0  0
 13 15  2  0  0  0  0
 17 18  1  0  0  0  0
 19 21  2  0  0  0  0
 19 22  1  0  0  0  0
 23 19  1  0  0  0  0
 20 24  2  0  0  0  0
 20 25  1  0  0  0  0
 21 24  1  0  0  0  0
 22 25  2  0  0  0  0
 23 27  2  0  0  0  0
 26 27  1  0  0  0  0
M  END
> <Value>
6.199998172182031

> <Relation>
=

> <SourceURI>
mol:CHEMBL1987756

$$$$

Generated by Molecular Materials Informatics

 35 38  0  0  0  0  0  0  0  0999 V2000
    0.4554    3.2732    0.0000 S   0  0  0  0  0  0  0  0  0  0  0  0
    4.4801   10.3095    0.0000 S   0  0  0  0  0  0  0  0  0  0  0  0
   -3.8697   -4.0574    0.0000 O   0  0  0  0  0  0  0  0  0  0  0  0
    4.4801   11.8095    0.0000 O   0  0  0  0  0  0  0  0  0  0  0  0
    2.9801   10.3095    0.0000 O   0  0  0  0  0  0  0  0  0  0  0  0
    4.4801    1.3095    0.0000 N   0  0  0  0  0  0  0  0  0  0  0  0
    3.1810   -0.9405    0.0000 N   0  0  0  0  0  0  0  0  0  0  0  0
   -1.3988   -4.8603    0.0000 N   0  0  0  0  0  0  0  0  0  0  0  0
   -3.3295   -6.5986    0.0000 N   0  0  0  0  0  0  0  0  0  0  0  0
    4.4801    8.8095    0.0000 N   0  0  0  0  0  0  0  0  0  0  0  0
    1.8820    1.3095    0.0000 C   0  0  0  0  0  0  0  0  0  0  0  0
    1.8820    2.8095    0.0000 C   0  0  0  0  0  0  0  0  0  0  0  0
    0.4554    0.8461    0.0000 C   0  0  0  0  0  0  0  0  0  0  0  0
    3.1810    0.5595    0.0000 C   0  0  0  0  0  0  0  0  0  0  0  0
    3.1810    3.5595    0.0000 C   0  0  0  0  0  0  0  0  0  0  0  0
   -0.0080   -0.5805    0.0000 C   0  0  0  0  0  0  0  0  0  0  0  0
   -0.4262    2.0595    0.0000 C   0  0  0  0  0  0  0  0  0  0  0  0
    4.4801    2.8095    0.0000 C   0  0  0  0  0  0  0  0  0  0  0  0
    0.9956   -1.6952    0.0000 C   0  0  0  0  0  0  0  0  0  0  0  0
   -1.4753   -0.8923    0.0000 C   0  0  0  0  0  0  0  0  0  0  0  0
    3.1810    5.0595    0.0000 C   0  0  0  0  0  0  0  0  0  0  0  0
   -0.9351   -3.4337    0.0000 C   0  0  0  0  0  0  0  0  0  0  0  0
    0.5320   -3.1217    0.0000 C   0  0  0  0  0  0  0  0  0  0  0  0
   -1.9390   -2.3190    0.0000 C   0  0  0  0  0  0  0  0  0  0  0  0
    3.1810    6.5595    0.0000 C   0  0  0  0  0  0  0  0  0  0  0  0
   -2.8659   -5.1721    0.0000 C   0  0  0  0  0  0  0  0  0  0  0  0
    3.1810    8.0595    0.0000 C   0  0  0  0  0  0  0  0  0  0  0  0
   -4.7966   -6.9106    0.0000 C   0  0  0  0  0  0  0  0  0  0  0  0
   -5.2602   -8.3372    0.0000 C   0  0  0  0  0  0  0  0  0  0  0  0
   -5.8004   -5.7959    0.0000 C   0  0  0  0  0  0  0  0  0  0  0  0
   -6.7275   -8.6490    0.0000 C   0  0  0  0  0  0  0  0  0  0  0  0
   -7.2677   -6.1077    0.0000 C   0  0  0  0  0  0  0  0  0  0  0  0
   -7.7311   -7.5343    0.0000 C   0  0  0  0  0  0  0  0  0  0  0  0
    5.9801   10.3095    0.0000 C   0  0  0  0  0  0  0  0  0  0  0  0
   -7.1910  -10.0755    0.0000 C   0  0  0  0  0  0  0  0  0  0  0  0
  1 12  1  0  0  0  0
  1 17  1  0  0  0  0
  2  4  2  0  0  0  0
  2  5  2  0  0  0  0
  2 10  1  0  0  0  0
  2 34  1  0  0  0  0
  3 26  2  0  0  0  0
  6 14  1  0  0  0  0
  6 18  2  0  0  0  0
  7 14  1  0  0  0  0
  8 22  1  0  0  0  0
  8 26  1  0  0  0  0
  9 26  1  0  0  0  0
  9 28  1  0  0  0  0
 10 27  1  0  0  0  0
 11 12  1  0  0  0  0
 11 13  1  0  0  0  0
 11 14  2  0  0  0  0
 12 15  2  0  0  0  0
 13 16  1  0  0  0  0
 13 17  2  0  0  0  0
 15 18  1  0  0  0  0
 15 21  1  0  0  0  0
 16 19  2  0  0  0  0
 16 20  1  0  0  0  0
 19 23  1  0  0  0  0
 20 24  2  0  0  0  0
 21 25  3  0  0  0  0
 22 23  2  0  0  0  0
 22 24  1  0  0  0  0
 25 27  1  0  0  0  0
 28 29  2  0  0  0  0
 28 30  1  0  0  0  0
 29 31  1  0  0  0  0
 30 32  2  0  0  0  0
 31 33  2  0  0  0  0
 31 35  1  0  0  0  0
 32 33  1  0  0  0  0
M  END
> <Value>
5.899998417198648

> <Relation>
<

> <SourceURI>
mol:CHEMBL1994321

$$$$

Generated by Molecular Materials Informatics

 22 25  0  0  0  0  0  0  0  0999 V2000
    4.6695   -2.2096    0.0000 Br  0  0  0  0  0  0  0  0  0  0  0  0
   -5.3441   -1.4596    0.0000 N   0  0  0  0  0  0  0  0  0  0  0  0
   -0.6541    0.5038    0.0000 N   0  0  0  0  0  0  0  0  0  0  0  0
    2.0715   -2.2096    0.0000 N   0  0  0  0  0  0  0  0  0  0  0  0
    2.0715    0.7904    0.0000 N   0  0  0  0  0  0  0  0  0  0  0  0
   -4.0967    5.9093    0.0000 N   0  0  0  0  0  0  0  0  0  0  0  0
   -3.0358   -0.7096    0.0000 C   0  0  0  0  0  0  0  0  0  0  0  0
   -1.5358   -0.7096    0.0000 C   0  0  0  0  0  0  0  0  0  0  0  0
   -3.9176    0.5038    0.0000 C   0  0  0  0  0  0  0  0  0  0  0  0
   -5.3441    0.0404    0.0000 C   0  0  0  0  0  0  0  0  0  0  0  0
    0.7724   -1.4596    0.0000 C   0  0  0  0  0  0  0  0  0  0  0  0
    0.7724    0.0404    0.0000 C   0  0  0  0  0  0  0  0  0  0  0  0
   -0.6541   -1.9231    0.0000 C   0  0  0  0  0  0  0  0  0  0  0  0
   -3.9176   -1.9231    0.0000 C   0  0  0  0  0  0  0  0  0  0  0  0
   -3.6056    1.9711    0.0000 C   0  0  0  0  0  0  0  0  0  0  0  0
   -6.4589    1.0440    0.0000 C   0  0  0  0  0  0  0  0  0  0  0  0
   -4.7203    2.9747    0.0000 C   0  0  0  0  0  0  0  0  0  0  0  0
    3.3704   -1.4596    0.0000 C   0  0  0  0  0  0  0  0  0  0  0  0
   -6.1470    2.5113    0.0000 C   0  0  0  0  0  0  0  0  0  0  0  0
    3.3704    0.0404    0.0000 C   0  0  0  0  0  0  0  0  0  0  0  0
   -6.5576   -2.3413    0.0000 C   0  0  0  0  0  0  0  0  0  0  0  0
   -4.4085    4.4420    0.0000 C   0  0  0  0  0  0  0  0  0  0  0  0
  1 18  1  0  0  0  0
  2 10  1  0  0  0  0
  2 14  1  0  0  0  0
  2 21  1  0  0  0  0
  3  8  1  0  0  0  0
  3 12  1  0  0  0  0
  4 11  2  0  0  0  0
  4 18  1  0  0  0  0
  5 12  2  0  0  0  0
  5 20  1  0  0  0  0
  6 22  3  0  0  0  0
  7  8  1  0  0  0  0
  7  9  1  0  0  0  0
  7 14  2  0  0  0  0
  8 13  2  0  0  0  0
  9 10  1  0  0  0  0
  9 15  2  0  0  0  0
 10 16  2  0  0  0  0
 11 12  1  0  0  0  0
 11 13  1  0  0  0  0
 15 17  1  0  0  0  0
 16 19  1  0  0  0  0
 17 19  2  0  0  0  0
 17 22  1  0  0  0  0
 18 20  2  0  0  0  0
M  END
> <Value>
5.300000202445418

> <Relation>
<

> <SourceURI>
mol:CHEMBL1978562

$$$$

Generated by Molecular Materials Informatics

 24 27  0  0  0  0  0  0  0  0999 V2000
    3.8999   -2.2635    0.0000 O   0  0  0  0  0  0  0  0  0  0  0  0
    1.1743    1.9501    0.0000 N   0  0  0  0  0  0  0  0  0  0  0  0
    5.1990   -0.0135    0.0000 N   0  0  0  0  0  0  0  0  0  0  0  0
   -4.2073    0.7365    0.0000 N   0  0  0  0  0  0  0  0  0  0  0  0
    2.6009   -0.0135    0.0000 C   0  0  0  0  0  0  0  0  0  0  0  0
    0.2927    0.7365    0.0000 C   0  0  0  0  0  0  0  0  0  0  0  0
    2.6009    1.4865    0.0000 C   0  0  0  0  0  0  0  0  0  0  0  0
    1.1743   -0.4770    0.0000 C   0  0  0  0  0  0  0  0  0  0  0  0
   -1.2073    0.7365    0.0000 C   0  0  0  0  0  0  0  0  0  0  0  0
    3.8999   -0.7635    0.0000 C   0  0  0  0  0  0  0  0  0  0  0  0
    3.8999    2.2365    0.0000 C   0  0  0  0  0  0  0  0  0  0  0  0
   -1.9573    2.0356    0.0000 C   0  0  0  0  0  0  0  0  0  0  0  0
   -1.9573   -0.5624    0.0000 C   0  0  0  0  0  0  0  0  0  0  0  0
   -3.4573    2.0356    0.0000 C   0  0  0  0  0  0  0  0  0  0  0  0
    5.1990    1.4865    0.0000 C   0  0  0  0  0  0  0  0  0  0  0  0
   -3.4573   -0.5624    0.0000 C   0  0  0  0  0  0  0  0  0  0  0  0
   -4.2073    3.3346    0.0000 C   0  0  0  0  0  0  0  0  0  0  0  0
   -5.7073    3.3346    0.0000 C   0  0  0  0  0  0  0  0  0  0  0  0
   -6.4573    4.6337    0.0000 C   0  0  0  0  0  0  0  0  0  0  0  0
   -7.9573    4.6337    0.0000 C   0  0  0  0  0  0  0  0  0  0  0  0
   -5.7073    5.9326    0.0000 C   0  0  0  0  0  0  0  0  0  0  0  0
   -8.7073    5.9326    0.0000 C   0  0  0  0  0  0  0  0  0  0  0  0
   -6.4573    7.2317    0.0000 C   0  0  0  0  0  0  0  0  0  0  0  0
   -7.9573    7.2317    0.0000 C   0  0  0  0  0  0  0  0  0  0  0  0
  1 10  2  0  0  0  0
  2  6  1  0  0  0  0
  2  7  1  0  0  0  0
  3 10  1  0  0  0  0
  3 15  1  0  0  0  0
  4 14  1  0  0  0  0
  4 16  2  0  0  0  0
  5  7  2  0  0  0  0
  5  8  1  0  0  0  0
  5 10  1  0  0  0  0
  6  8  2  0  0  0  0
  6  9  1  0  0  0  0
  7 11  1  0  0  0  0
  9 12  1  0  0  0  0
  9 13  2  0  0  0  0
 11 15  1  0  0  0  0
 12 14  2  0  0  0  0
 13 16  1  0  0  0  0
 17 14  1  0  0  0  0
 17 18  2  0  0  0  0
 18 19  1  0  0  0  0
 19 20  2  0  0  0  0
 19 21  1  0  0  0  0
 20 22  1  0  0  0  0
 21 23  2  0  0  0  0
 22 24  2  0  0  0  0
 23 24  1  0  0  0  0
M  END
> <Value>
7.700057099977233

> <Relation>
=

> <SourceURI>
mol:CHEMBL1997129

$$$$

Generated by Molecular Materials Informatics

 24 26  0  0  0  0  0  0  0  0999 V2000
    3.6047    0.2625    0.0000 O   0  0  0  0  0  0  0  0  0  0  0  0
    6.2028   -2.7375    0.0000 O   0  0  0  0  0  0  0  0  0  0  0  0
    2.3056   -1.9875    0.0000 N   0  0  0  0  0  0  0  0  0  0  0  0
   -5.4883    4.0123    0.0000 N   0  0  0  0  0  0  0  0  0  0  0  0
    1.0068    0.2625    0.0000 C   0  0  0  0  0  0  0  0  0  0  0  0
   -1.5913    1.7624    0.0000 C   0  0  0  0  0  0  0  0  0  0  0  0
    2.3056   -0.4875    0.0000 C   0  0  0  0  0  0  0  0  0  0  0  0
   -2.8902    2.5124    0.0000 C   0  0  0  0  0  0  0  0  0  0  0  0
    3.6047   -2.7375    0.0000 C   0  0  0  0  0  0  0  0  0  0  0  0
   -0.2923   -0.4875    0.0000 C   0  0  0  0  0  0  0  0  0  0  0  0
    1.0068    1.7624    0.0000 C   0  0  0  0  0  0  0  0  0  0  0  0
   -1.5913    0.2625    0.0000 C   0  0  0  0  0  0  0  0  0  0  0  0
   -0.2923    2.5124    0.0000 C   0  0  0  0  0  0  0  0  0  0  0  0
    3.6047   -4.2374    0.0000 C   0  0  0  0  0  0  0  0  0  0  0  0
   -2.8902    4.0123    0.0000 C   0  0  0  0  0  0  0  0  0  0  0  0
   -4.1892    1.7624    0.0000 C   0  0  0  0  0  0  0  0  0  0  0  0
    4.9037   -4.9874    0.0000 C   0  0  0  0  0  0  0  0  0  0  0  0
    2.3056   -4.9874    0.0000 C   0  0  0  0  0  0  0  0  0  0  0  0
    4.9037   -1.9875    0.0000 C   0  0  0  0  0  0  0  0  0  0  0  0
   -4.1892    4.7623    0.0000 C   0  0  0  0  0  0  0  0  0  0  0  0
   -5.4883    2.5124    0.0000 C   0  0  0  0  0  0  0  0  0  0  0  0
    4.9037   -6.4873    0.0000 C   0  0  0  0  0  0  0  0  0  0  0  0
    2.3056   -6.4873    0.0000 C   0  0  0  0  0  0  0  0  0  0  0  0
    3.6047   -7.2373    0.0000 C   0  0  0  0  0  0  0  0  0  0  0  0
  1  7  2  0  0  0  0
  2 19  1  0  0  0  0
  3  7  1  0  0  0  0
  3  9  1  0  0  0  0
  4 20  2  0  0  0  0
  4 21  1  0  0  0  0
  5  7  1  0  0  0  0
  5 10  2  0  0  0  0
  5 11  1  0  0  0  0
  6  8  1  0  0  0  0
  6 12  2  0  0  0  0
  6 13  1  0  0  0  0
  8 15  2  0  0  0  0
  8 16  1  0  0  0  0
  9 14  1  0  0  0  0
  9 19  1  0  0  0  0
 10 12  1  0  0  0  0
 11 13  2  0  0  0  0
 14 17  2  0  0  0  0
 14 18  1  0  0  0  0
 15 20  1  0  0  0  0
 16 21  2  0  0  0  0
 17 22  1  0  0  0  0
 18 23  2  0  0  0  0
 22 24  2  0  0  0  0
 23 24  1  0  0  0  0
M  END
> <Value>
5.899998417198648

> <Relation>
<

> <SourceURI>
mol:CHEMBL1974288

$$$$

Generated by Molecular Materials Informatics

 26 29  0  0  0  0  0  0  0  0999 V2000
   -2.5130    3.2796    0.0000 O   0  0  0  0  0  0  0  0  0  0  0  0
    1.5409   -3.4620    0.0000 O   0  0  0  0  0  0  0  0  0  0  0  0
    0.2418    1.7878    0.0000 N   0  0  0  0  0  0  0  0  0  0  0  0
   -1.0572   -3.4620    0.0000 N   0  0  0  0  0  0  0  0  0  0  0  0
    0.2418   -1.2121    0.0000 C   0  0  0  0  0  0  0  0  0  0  0  0
    1.5409   -0.4621    0.0000 C   0  0  0  0  0  0  0  0  0  0  0  0
    1.5409    1.0378    0.0000 C   0  0  0  0  0  0  0  0  0  0  0  0
   -1.0572    1.0378    0.0000 C   0  0  0  0  0  0  0  0  0  0  0  0
   -1.0572   -0.4621    0.0000 C   0  0  0  0  0  0  0  0  0  0  0  0
    0.2418   -2.7121    0.0000 C   0  0  0  0  0  0  0  0  0  0  0  0
   -2.3561    1.7878    0.0000 C   0  0  0  0  0  0  0  0  0  0  0  0
    2.8398   -1.2121    0.0000 C   0  0  0  0  0  0  0  0  0  0  0  0
    2.8398    1.7878    0.0000 C   0  0  0  0  0  0  0  0  0  0  0  0
   -1.0572   -4.9620    0.0000 C   0  0  0  0  0  0  0  0  0  0  0  0
   -3.7264    1.1776    0.0000 C   0  0  0  0  0  0  0  0  0  0  0  0
    4.1388   -0.4621    0.0000 C   0  0  0  0  0  0  0  0  0  0  0  0
    4.1388    1.0378    0.0000 C   0  0  0  0  0  0  0  0  0  0  0  0
    0.2418   -5.7120    0.0000 C   0  0  0  0  0  0  0  0  0  0  0  0
   -2.3561   -5.7120    0.0000 C   0  0  0  0  0  0  0  0  0  0  0  0
   -3.9800    3.5914    0.0000 C   0  0  0  0  0  0  0  0  0  0  0  0
   -4.7300    2.2923    0.0000 C   0  0  0  0  0  0  0  0  0  0  0  0
   -2.3561   -7.2119    0.0000 C   0  0  0  0  0  0  0  0  0  0  0  0
    0.2418   -7.2119    0.0000 C   0  0  0  0  0  0  0  0  0  0  0  0
   -1.0572   -7.9619    0.0000 C   0  0  0  0  0  0  0  0  0  0  0  0
    1.5409   -4.9620    0.0000 C   0  0  0  0  0  0  0  0  0  0  0  0
   -3.6551   -7.9619    0.0000 C   0  0  0  0  0  0  0  0  0  0  0  0
  1 11  1  0  0  0  0
  1 20  1  0  0  0  0
  2 10  2  0  0  0  0
  3  7  1  0  0  0  0
  3  8  2  0  0  0  0
  4 10  1  0  0  0  0
  4 14  1  0  0  0  0
  5  6  1  0  0  0  0
  5  9  2  0  0  0  0
  5 10  1  0  0  0  0
  6  7  1  0  0  0  0
  6 12  2  0  0  0  0
  7 13  2  0  0  0  0
  8  9  1  0  0  0  0
  8 11  1  0  0  0  0
 11 15  2  0  0  0  0
 12 16  1  0  0  0  0
 13 17  1  0  0  0  0
 14 18  1  0  0  0  0
 14 19  2  0  0  0  0
 15 21  1  0  0  0  0
 16 17  2  0  0  0  0
 18 23  2  0  0  0  0
 18 25  1  0  0  0  0
 19 22  1  0  0  0  0
 20 21  2  0  0  0  0
 22 24  2  0  0  0  0
 22 26  1  0  0  0  0
 23 24  1  0  0  0  0
M  END
> <Value>
5.300000202445418

> <Relation>
=

> <SourceURI>
mol:CHEMBL1984296

$$$$

Generated by Molecular Materials Informatics

 27 30  0  0  0  0  0  0  0  0999 V2000
   -4.9845  -24.3031    0.0000 C   0  0  0  0  0  0  0  0  0  0  0  0
   -4.9867  -25.8080    0.0000 C   0  0  0  0  0  0  0  0  0  0  0  0
   -3.6904  -26.5590    0.0000 C   0  0  0  0  0  0  0  0  0  0  0  0
   -2.3823  -25.8071    0.0000 C   0  0  0  0  0  0  0  0  0  0  0  0
   -2.3881  -24.2959    0.0000 C   0  0  0  0  0  0  0  0  0  0  0  0
   -3.6940  -23.5527    0.0000 C   0  0  0  0  0  0  0  0  0  0  0  0
   -3.7009  -22.0526    0.0000 N   0  0  0  0  0  0  0  0  0  0  0  0
   -2.4053  -21.2964    0.0000 C   0  0  0  0  0  0  0  0  0  0  0  0
   -2.4122  -19.7963    0.0000 O   0  0  0  0  0  0  0  0  0  0  0  0
   -1.1027  -22.0404    0.0000 N   0  0  0  0  0  0  0  0  0  0  0  0
    0.1929  -21.2844    0.0000 C   0  0  0  0  0  0  0  0  0  0  0  0
    1.4903  -22.0301    0.0000 C   0  0  0  0  0  0  0  0  0  0  0  0
    2.7850  -21.2751    0.0000 C   0  0  0  0  0  0  0  0  0  0  0  0
    2.7786  -19.7737    0.0000 C   0  0  0  0  0  0  0  0  0  0  0  0
    1.4670  -19.0300    0.0000 C   0  0  0  0  0  0  0  0  0  0  0  0
    0.1776  -19.7890    0.0000 C   0  0  0  0  0  0  0  0  0  0  0  0
   -3.6927  -28.0525    0.0000 C   0  0  0  0  0  0  0  0  0  0  0  0
   -2.4816  -30.1561    0.0000 S   0  0  0  0  0  0  0  0  0  0  0  0
   -2.3232  -28.6645    0.0000 C   0  0  0  0  0  0  0  0  0  0  0  0
   -3.9496  -30.4662    0.0000 C   0  0  0  0  0  0  0  0  0  0  0  0
   -4.6891  -29.1697    0.0000 C   0  0  0  0  0  0  0  0  0  0  0  0
   -6.1785  -29.1637    0.0000 C   0  0  0  0  0  0  0  0  0  0  0  0
   -6.9298  -30.4529    0.0000 N   0  0  0  0  0  0  0  0  0  0  0  0
   -6.1812  -31.7509    0.0000 C   0  0  0  0  0  0  0  0  0  0  0  0
   -4.6944  -31.7503    0.0000 N   0  0  0  0  0  0  0  0  0  0  0  0
   -6.9231  -27.8614    0.0000 N   0  0  0  0  0  0  0  0  0  0  0  0
    4.0872  -22.0197    0.0000 C   0  0  0  0  0  0  0  0  0  0  0  0
  1  2  2  0  0  0  0
 13 14  2  0  0  0  0
  6  7  1  0  0  0  0
 14 15  1  0  0  0  0
  3  4  2  0  0  0  0
 15 16  2  0  0  0  0
 16 11  1  0  0  0  0
 17 21  1  0  0  0  0
  7  8  1  0  0  0  0
  8  9  2  0  0  0  0
 20 18  1  0  0  0  0
 18 19  1  0  0  0  0
 19 17  2  0  0  0  0
  3 17  1  0  0  0  0
  4  5  1  0  0  0  0
  8 10  1  0  0  0  0
 20 21  1  0  0  0  0
  2  3  1  0  0  0  0
 21 22  2  0  0  0  0
 10 11  1  0  0  0  0
 22 23  1  0  0  0  0
  5  6  2  0  0  0  0
 23 24  2  0  0  0  0
 11 12  2  0  0  0  0
 24 25  1  0  0  0  0
 25 20  2  0  0  0  0
  6  1  1  0  0  0  0
 22 26  1  0  0  0  0
 12 13  1  0  0  0  0
 13 27  1  0  0  0  0
M  END
> <Value>
5.899998417198648

> <Relation>
<

> <SourceURI>
mol:CHEMBL196363

$$$$

Generated by Molecular Materials Informatics

 29 32  0  0  0  0  0  0  0  0999 V2000
   -0.9901   -6.0200    0.0000 C   0  0  0  0  0  0  0  0  0  0  0  0
   -2.2900   -5.2700    0.0000 C   0  0  0  0  0  0  0  0  0  0  0  0
   -3.5873   -6.0231    0.0000 C   0  0  0  0  0  0  0  0  0  0  0  0
   -4.8881   -5.2761    0.0000 C   0  0  0  0  0  0  0  0  0  0  0  0
   -4.8917   -3.7761    0.0000 C   0  0  0  0  0  0  0  0  0  0  0  0
   -3.5944   -3.0231    0.0000 N   0  0  0  0  0  0  0  0  0  0  0  0
   -2.2935   -3.7700    0.0000 C   0  0  0  0  0  0  0  0  0  0  0  0
   -0.9890   -7.2200    0.0000 O   0  0  0  0  0  0  0  0  0  0  0  0
    0.0488   -5.4194    0.0000 N   0  0  0  0  0  0  0  0  0  0  0  0
   -0.9971   -3.0138    0.0000 N   0  0  0  0  0  0  0  0  0  0  0  0
   -1.0028   -1.5132    0.0000 C   0  0  0  0  0  0  0  0  0  0  0  0
    0.2917   -0.7475    0.0000 N   0  0  0  0  0  0  0  0  0  0  0  0
    0.2917    0.7475    0.0000 C   0  0  0  0  0  0  0  0  0  0  0  0
   -1.0028    1.5132    0.0000 C   0  0  0  0  0  0  0  0  0  0  0  0
   -2.3155    0.7475    0.0000 C   0  0  0  0  0  0  0  0  0  0  0  0
   -2.3155   -0.7475    0.0000 N   0  0  0  0  0  0  0  0  0  0  0  0
    1.7138    1.2033    0.0000 N   0  0  0  0  0  0  0  0  0  0  0  0
    2.5889    0.0182    0.0000 C   0  0  0  0  0  0  0  0  0  0  0  0
    1.7138   -1.2033    0.0000 C   0  0  0  0  0  0  0  0  0  0  0  0
   -3.6168    1.4950    0.0000 C   0  0  0  0  0  0  0  0  0  0  0  0
   -4.9144    0.7421    0.0000 C   0  0  0  0  0  0  0  0  0  0  0  0
   -6.2151    1.4892    0.0000 C   0  0  0  0  0  0  0  0  0  0  0  0
   -6.2185    2.9892    0.0000 C   0  0  0  0  0  0  0  0  0  0  0  0
   -4.9211    3.7421    0.0000 C   0  0  0  0  0  0  0  0  0  0  0  0
   -3.6204    2.9950    0.0000 C   0  0  0  0  0  0  0  0  0  0  0  0
   -7.5184    3.7394    0.0000 O   0  0  0  0  0  0  0  0  0  0  0  0
   -7.5193    4.9394    0.0000 C   0  0  0  0  0  0  0  0  0  0  0  0
   -7.5116    0.7332    0.0000 O   0  0  0  0  0  0  0  0  0  0  0  0
   -7.5072   -0.4668    0.0000 C   0  0  0  0  0  0  0  0  0  0  0  0
  1  2  1  0  0  0  0
  2  3  1  0  0  0  0
  3  4  2  0  0  0  0
  4  5  1  0  0  0  0
  5  6  2  0  0  0  0
  2  7  2  0  0  0  0
  6  7  1  0  0  0  0
  1  8  2  0  0  0  0
  1  9  1  0  0  0  0
  7 10  1  0  0  0  0
 10 11  1  0  0  0  0
 11 12  1  0  0  0  0
 12 13  1  0  0  0  0
 13 14  1  0  0  0  0
 14 15  2  0  0  0  0
 11 16  2  0  0  0  0
 15 16  1  0  0  0  0
 13 17  2  0  0  0  0
 17 18  1  0  0  0  0
 12 19  1  0  0  0  0
 18 19  2  0  0  0  0
 15 20  1  0  0  0  0
 20 21  1  0  0  0  0
 21 22  2  0  0  0  0
 22 23  1  0  0  0  0
 23 24  2  0  0  0  0
 20 25  2  0  0  0  0
 24 25  1  0  0  0  0
 23 26  1  0  0  0  0
 26 27  1  0  0  0  0
 22 28  1  0  0  0  0
 28 29  1  0  0  0  0
M  END
> <Value>
5.899998417198648

> <Relation>
<

> <SourceURI>
mol:CHEMBL1190711

$$$$

Generated by Molecular Materials Informatics

 12 13  0  0  0  0  0  0  0  0999 V2000
   -3.1825   -2.3250    0.0000 O   0  0  0  0  0  0  0  0  0  0  0  0
    0.7145   -1.5750    0.0000 N   0  0  0  0  0  0  0  0  0  0  0  0
   -0.5846    0.6750    0.0000 N   0  0  0  0  0  0  0  0  0  0  0  0
   -1.8836   -0.0750    0.0000 N   0  0  0  0  0  0  0  0  0  0  0  0
    0.7145   -0.0750    0.0000 C   0  0  0  0  0  0  0  0  0  0  0  0
   -0.5846   -2.3250    0.0000 C   0  0  0  0  0  0  0  0  0  0  0  0
   -1.8836   -1.5750    0.0000 C   0  0  0  0  0  0  0  0  0  0  0  0
    2.0134   -2.3250    0.0000 C   0  0  0  0  0  0  0  0  0  0  0  0
    2.0134    0.6750    0.0000 C   0  0  0  0  0  0  0  0  0  0  0  0
    3.3124   -1.5750    0.0000 C   0  0  0  0  0  0  0  0  0  0  0  0
    3.3124   -0.0750    0.0000 C   0  0  0  0  0  0  0  0  0  0  0  0
    4.6115   -2.3250    0.0000 C   0  0  0  0  0  0  0  0  0  0  0  0
  1  7  2  0  0  0  0
  2  5  1  0  0  0  0
  2  6  1  0  0  0  0
  2  8  1  0  0  0  0
  3  4  1  0  0  0  0
  3  5  2  0  0  0  0
  4  7  1  0  0  0  0
  5  9  1  0  0  0  0
  6  7  1  0  0  0  0
  8 10  2  0  0  0  0
  9 11  2  0  0  0  0
 10 11  1  0  0  0  0
 10 12  1  0  0  0  0
M  END
> <Value>
4.200000030616179

> <Relation>
=

> <SourceURI>
mol:CHEMBL1964718

$$$$

Generated by Molecular Materials Informatics

 40 45  0  0  0  0  0  0  0  0999 V2000
    0.9638   -1.1959    0.0000 O   0  0  0  0  0  0  0  0  0  0  0  0
   13.9538   -5.6957    0.0000 O   0  0  0  0  0  0  0  0  0  0  0  0
    7.4587   -1.9458    0.0000 N   0  0  0  0  0  0  0  0  0  0  0  0
    6.1598   -4.1958    0.0000 N   0  0  0  0  0  0  0  0  0  0  0  0
    6.1598    0.3041    0.0000 N   0  0  0  0  0  0  0  0  0  0  0  0
    0.8361    3.0176    0.0000 N   0  0  0  0  0  0  0  0  0  0  0  0
   -0.0455    1.8040    0.0000 N   0  0  0  0  0  0  0  0  0  0  0  0
   12.6547   -3.4458    0.0000 N   0  0  0  0  0  0  0  0  0  0  0  0
   -2.9332   -1.9458    0.0000 N   0  0  0  0  0  0  0  0  0  0  0  0
    4.8608   -1.9458    0.0000 C   0  0  0  0  0  0  0  0  0  0  0  0
    6.1598   -1.1959    0.0000 C   0  0  0  0  0  0  0  0  0  0  0  0
    4.8608   -3.4458    0.0000 C   0  0  0  0  0  0  0  0  0  0  0  0
    7.4587   -3.4458    0.0000 C   0  0  0  0  0  0  0  0  0  0  0  0
    8.7577   -4.1958    0.0000 C   0  0  0  0  0  0  0  0  0  0  0  0
    3.5617   -1.1959    0.0000 C   0  0  0  0  0  0  0  0  0  0  0  0
    4.8608    1.0541    0.0000 C   0  0  0  0  0  0  0  0  0  0  0  0
    3.5617   -4.1958    0.0000 C   0  0  0  0  0  0  0  0  0  0  0  0
    2.2628   -1.9458    0.0000 C   0  0  0  0  0  0  0  0  0  0  0  0
    2.2628    1.0541    0.0000 C   0  0  0  0  0  0  0  0  0  0  0  0
    2.2628   -3.4458    0.0000 C   0  0  0  0  0  0  0  0  0  0  0  0
    2.2628    2.5540    0.0000 C   0  0  0  0  0  0  0  0  0  0  0  0
    3.5617    0.3041    0.0000 C   0  0  0  0  0  0  0  0  0  0  0  0
   10.0568   -3.4458    0.0000 C   0  0  0  0  0  0  0  0  0  0  0  0
    4.8608    2.5540    0.0000 C   0  0  0  0  0  0  0  0  0  0  0  0
    8.7577   -5.6957    0.0000 C   0  0  0  0  0  0  0  0  0  0  0  0
   11.3558   -4.1958    0.0000 C   0  0  0  0  0  0  0  0  0  0  0  0
    3.5617    3.3040    0.0000 C   0  0  0  0  0  0  0  0  0  0  0  0
    0.8361    0.5906    0.0000 C   0  0  0  0  0  0  0  0  0  0  0  0
   10.0568   -6.4457    0.0000 C   0  0  0  0  0  0  0  0  0  0  0  0
   11.3558   -5.6957    0.0000 C   0  0  0  0  0  0  0  0  0  0  0  0
   -0.3353   -1.9458    0.0000 C   0  0  0  0  0  0  0  0  0  0  0  0
   13.9538   -4.1958    0.0000 C   0  0  0  0  0  0  0  0  0  0  0  0
   -1.6343   -1.1959    0.0000 C   0  0  0  0  0  0  0  0  0  0  0  0
   15.2528   -3.4458    0.0000 C   0  0  0  0  0  0  0  0  0  0  0  0
   -3.0901   -3.4374    0.0000 C   0  0  0  0  0  0  0  0  0  0  0  0
   -4.3035   -1.3357    0.0000 C   0  0  0  0  0  0  0  0  0  0  0  0
   -4.5571   -3.7494    0.0000 C   0  0  0  0  0  0  0  0  0  0  0  0
   -5.3071   -2.4504    0.0000 C   0  0  0  0  0  0  0  0  0  0  0  0
   16.5517   -4.1958    0.0000 C   0  0  0  0  0  0  0  0  0  0  0  0
   17.8507   -3.4458    0.0000 C   0  0  0  0  0  0  0  0  0  0  0  0
  1 18  1  0  0  0  0
  1 31  1  0  0  0  0
  2 32  2  0  0  0  0
  3 11  1  0  0  0  0
  3 13  2  0  0  0  0
  4 12  2  0  0  0  0
  4 13  1  0  0  0  0
  5 11  1  0  0  0  0
  5 16  1  0  0  0  0
  6  7  1  0  0  0  0
  6 21  1  0  0  0  0
  7 28  2  0  0  0  0
  8 26  1  0  0  0  0
  8 32  1  0  0  0  0
  9 33  1  0  0  0  0
  9 35  1  0  0  0  0
  9 36  1  0  0  0  0
 10 11  2  0  0  0  0
 10 12  1  0  0  0  0
 10 15  1  0  0  0  0
 12 17  1  0  0  0  0
 13 14  1  0  0  0  0
 14 23  2  0  0  0  0
 14 25  1  0  0  0  0
 15 18  2  0  0  0  0
 16 22  1  0  0  0  0
 16 24  2  0  0  0  0
 17 20  2  0  0  0  0
 18 20  1  0  0  0  0
 19 21  1  0  0  0  0
 19 22  2  0  0  0  0
 19 28  1  0  0  0  0
 21 27  2  0  0  0  0
 23 26  1  0  0  0  0
 24 27  1  0  0  0  0
 25 29  2  0  0  0  0
 26 30  2  0  0  0  0
 29 30  1  0  0  0  0
 31 33  1  0  0  0  0
 32 34  1  0  0  0  0
 34 39  1  0  0  0  0
 35 37  1  0  0  0  0
 36 38  1  0  0  0  0
 37 38  1  0  0  0  0
 39 40  1  0  0  0  0
M  END
> <Value>
5.59999938302362

> <Relation>
<

> <SourceURI>
mol:CHEMBL1968705

$$$$

Generated by Molecular Materials Informatics

 27 30  0  0  0  0  0  0  0  0999 V2000
   -4.6978    2.8801    0.0000 Cl  0  0  0  0  0  0  0  0  0  0  0  0
   -1.1467    8.7656    0.0000 F   0  0  0  0  0  0  0  0  0  0  0  0
    2.7149    5.2887    0.0000 F   0  0  0  0  0  0  0  0  0  0  0  0
   -1.6867    6.2243    0.0000 O   0  0  0  0  0  0  0  0  0  0  0  0
   -0.8364   -3.0237    0.0000 N   0  0  0  0  0  0  0  0  0  0  0  0
    0.2440    4.4860    0.0000 N   0  0  0  0  0  0  0  0  0  0  0  0
   -2.2269    3.6831    0.0000 N   0  0  0  0  0  0  0  0  0  0  0  0
    1.8893   -3.3102    0.0000 N   0  0  0  0  0  0  0  0  0  0  0  0
   -0.8364   -0.5968    0.0000 C   0  0  0  0  0  0  0  0  0  0  0  0
    0.5902   -1.0602    0.0000 C   0  0  0  0  0  0  0  0  0  0  0  0
   -1.3000    0.8300    0.0000 C   0  0  0  0  0  0  0  0  0  0  0  0
    0.5902   -2.5602    0.0000 C   0  0  0  0  0  0  0  0  0  0  0  0
   -0.7598    3.3712    0.0000 C   0  0  0  0  0  0  0  0  0  0  0  0
   -0.2962    1.9447    0.0000 C   0  0  0  0  0  0  0  0  0  0  0  0
   -1.7180   -1.8102    0.0000 C   0  0  0  0  0  0  0  0  0  0  0  0
    0.7842    7.0272    0.0000 C   0  0  0  0  0  0  0  0  0  0  0  0
   -2.7671    1.1418    0.0000 C   0  0  0  0  0  0  0  0  0  0  0  0
   -0.2196    5.9125    0.0000 C   0  0  0  0  0  0  0  0  0  0  0  0
   -3.2307    2.5683    0.0000 C   0  0  0  0  0  0  0  0  0  0  0  0
    1.8893   -0.3102    0.0000 C   0  0  0  0  0  0  0  0  0  0  0  0
    0.3206    8.4538    0.0000 C   0  0  0  0  0  0  0  0  0  0  0  0
    2.2513    6.7154    0.0000 C   0  0  0  0  0  0  0  0  0  0  0  0
    3.1882   -1.0602    0.0000 C   0  0  0  0  0  0  0  0  0  0  0  0
    3.1882   -2.5602    0.0000 C   0  0  0  0  0  0  0  0  0  0  0  0
    1.3244    9.5685    0.0000 C   0  0  0  0  0  0  0  0  0  0  0  0
    3.2551    7.8302    0.0000 C   0  0  0  0  0  0  0  0  0  0  0  0
    2.7915    9.2567    0.0000 C   0  0  0  0  0  0  0  0  0  0  0  0
  1 19  1  0  0  0  0
  2 21  1  0  0  0  0
  3 22  1  0  0  0  0
  4 18  2  0  0  0  0
  5 12  1  0  0  0  0
  5 15  1  0  0  0  0
  6 13  1  0  0  0  0
  6 18  1  0  0  0  0
  7 13  1  0  0  0  0
  7 19  2  0  0  0  0
  8 12  2  0  0  0  0
  8 24  1  0  0  0  0
  9 10  1  0  0  0  0
  9 11  1  0  0  0  0
  9 15  2  0  0  0  0
 10 12  1  0  0  0  0
 10 20  2  0  0  0  0
 11 14  1  0  0  0  0
 11 17  2  0  0  0  0
 13 14  2  0  0  0  0
 16 18  1  0  0  0  0
 16 21  1  0  0  0  0
 16 22  2  0  0  0  0
 17 19  1  0  0  0  0
 20 23  1  0  0  0  0
 21 25  2  0  0  0  0
 22 26  1  0  0  0  0
 23 24  2  0  0  0  0
 25 27  1  0  0  0  0
 26 27  2  0  0  0  0
M  END
> <Value>
5.499999678657065

> <Relation>
<

> <SourceURI>
mol:CHEMBL1991410

$$$$

Generated by Molecular Materials Informatics

 32 35  0  0  0  0  0  0  0  0999 V2000
    0.7929    3.6107    0.0000 S   0  0  0  0  0  0  0  0  0  0  0  0
   -3.5322   -3.7199    0.0000 O   0  0  0  0  0  0  0  0  0  0  0  0
    4.8176    1.6470    0.0000 N   0  0  0  0  0  0  0  0  0  0  0  0
    3.5185   -0.6030    0.0000 N   0  0  0  0  0  0  0  0  0  0  0  0
   -1.0613   -4.5228    0.0000 N   0  0  0  0  0  0  0  0  0  0  0  0
   -2.9920   -6.2611    0.0000 N   0  0  0  0  0  0  0  0  0  0  0  0
    4.8176    9.1470    0.0000 N   0  0  0  0  0  0  0  0  0  0  0  0
    2.2195    1.6470    0.0000 C   0  0  0  0  0  0  0  0  0  0  0  0
    2.2195    3.1470    0.0000 C   0  0  0  0  0  0  0  0  0  0  0  0
    0.7929    1.1836    0.0000 C   0  0  0  0  0  0  0  0  0  0  0  0
    3.5185    0.8970    0.0000 C   0  0  0  0  0  0  0  0  0  0  0  0
    3.5185    3.8970    0.0000 C   0  0  0  0  0  0  0  0  0  0  0  0
    0.3295   -0.2430    0.0000 C   0  0  0  0  0  0  0  0  0  0  0  0
   -0.0887    2.3970    0.0000 C   0  0  0  0  0  0  0  0  0  0  0  0
    4.8176    3.1470    0.0000 C   0  0  0  0  0  0  0  0  0  0  0  0
    1.3331   -1.3577    0.0000 C   0  0  0  0  0  0  0  0  0  0  0  0
   -1.1378   -0.5548    0.0000 C   0  0  0  0  0  0  0  0  0  0  0  0
    3.5185    5.3970    0.0000 C   0  0  0  0  0  0  0  0  0  0  0  0
   -0.5976   -3.0962    0.0000 C   0  0  0  0  0  0  0  0  0  0  0  0
    0.8695   -2.7842    0.0000 C   0  0  0  0  0  0  0  0  0  0  0  0
   -1.6015   -1.9815    0.0000 C   0  0  0  0  0  0  0  0  0  0  0  0
    3.5185    6.8970    0.0000 C   0  0  0  0  0  0  0  0  0  0  0  0
   -2.5284   -4.8346    0.0000 C   0  0  0  0  0  0  0  0  0  0  0  0
   -4.4591   -6.5731    0.0000 C   0  0  0  0  0  0  0  0  0  0  0  0
    3.5185    8.3970    0.0000 C   0  0  0  0  0  0  0  0  0  0  0  0
   -4.9227   -7.9997    0.0000 C   0  0  0  0  0  0  0  0  0  0  0  0
   -5.4629   -5.4584    0.0000 C   0  0  0  0  0  0  0  0  0  0  0  0
   -6.3900   -8.3115    0.0000 C   0  0  0  0  0  0  0  0  0  0  0  0
   -6.9302   -5.7702    0.0000 C   0  0  0  0  0  0  0  0  0  0  0  0
   -7.3936   -7.1968    0.0000 C   0  0  0  0  0  0  0  0  0  0  0  0
   -6.8535   -9.7380    0.0000 C   0  0  0  0  0  0  0  0  0  0  0  0
    4.8176   10.6470    0.0000 C   0  0  0  0  0  0  0  0  0  0  0  0
  1  9  1  0  0  0  0
  1 14  1  0  0  0  0
  2 23  2  0  0  0  0
  3 11  2  0  0  0  0
  3 15  1  0  0  0  0
  4 11  1  0  0  0  0
  5 19  1  0  0  0  0
  5 23  1  0  0  0  0
  6 23  1  0  0  0  0
  6 24  1  0  0  0  0
  7 25  1  0  0  0  0
  7 32  1  0  0  0  0
  8  9  2  0  0  0  0
  8 10  1  0  0  0  0
  8 11  1  0  0  0  0
  9 12  1  0  0  0  0
 10 13  1  0  0  0  0
 10 14  2  0  0  0  0
 12 15  2  0  0  0  0
 12 18  1  0  0  0  0
 13 16  2  0  0  0  0
 13 17  1  0  0  0  0
 16 20  1  0  0  0  0
 17 21  2  0  0  0  0
 18 22  3  0  0  0  0
 19 20  2  0  0  0  0
 19 21  1  0  0  0  0
 22 25  1  0  0  0  0
 24 26  1  0  0  0  0
 24 27  2  0  0  0  0
 26 28  2  0  0  0  0
 27 29  1  0  0  0  0
 28 30  1  0  0  0  0
 28 31  1  0  0  0  0
 29 30  2  0  0  0  0
M  END
> <Value>
5.300000202445418

> <Relation>
<

> <SourceURI>
mol:CHEMBL1964441

$$$$

Generated by Molecular Materials Informatics

 21 24  0  0  0  0  0  0  0  0999 V2000
    6.4170   -8.8736    0.0000 O   0  0  0  0  0  0  0  0  0  0  0  0
    7.1626   -7.5819    0.0000 N   0  0  0  0  0  0  0  0  0  0  0  0
    6.4169   -6.2903    0.0000 C   0  0  0  0  0  0  0  0  0  0  0  0
    4.9254   -6.2905    0.0000 C   0  0  0  0  0  0  0  0  0  0  0  0
    4.0425   -5.0755    0.0000 N   0  0  0  0  0  0  0  0  0  0  0  0
    2.6140   -5.5394    0.0000 C   0  0  0  0  0  0  0  0  0  0  0  0
    1.3194   -4.7819    0.0000 C   0  0  0  0  0  0  0  0  0  0  0  0
    0.0249   -5.5394    0.0000 C   0  0  0  0  0  0  0  0  0  0  0  0
    0.0249   -7.0395    0.0000 C   0  0  0  0  0  0  0  0  0  0  0  0
    1.3194   -7.7820    0.0000 C   0  0  0  0  0  0  0  0  0  0  0  0
    2.6140   -7.0414    0.0000 C   0  0  0  0  0  0  0  0  0  0  0  0
    4.0425   -7.5057    0.0000 N   0  0  0  0  0  0  0  0  0  0  0  0
    7.1624   -4.9986    0.0000 C   0  0  0  0  0  0  0  0  0  0  0  0
    8.6561   -4.8415    0.0000 N   0  0  0  0  0  0  0  0  0  0  0  0
    8.9687   -3.3724    0.0000 C   0  0  0  0  0  0  0  0  0  0  0  0
   10.2719   -2.6300    0.0000 C   0  0  0  0  0  0  0  0  0  0  0  0
   10.2633   -1.1302    0.0000 C   0  0  0  0  0  0  0  0  0  0  0  0
    8.9641   -0.3802    0.0000 C   0  0  0  0  0  0  0  0  0  0  0  0
    7.6737   -1.1299    0.0000 C   0  0  0  0  0  0  0  0  0  0  0  0
    7.6679   -2.6214    0.0000 C   0  0  0  0  0  0  0  0  0  0  0  0
    6.5515   -3.6264    0.0000 N   0  0  0  0  0  0  0  0  0  0  0  0
  1  2  1  0  0  0  0
  2  3  2  0  0  0  0
  3  4  1  0  0  0  0
  4 12  1  0  0  0  0
  4  5  2  0  0  0  0
  5  6  1  0  0  0  0
  6 11  2  0  0  0  0
  6  7  1  0  0  0  0
  7  8  2  0  0  0  0
  8  9  1  0  0  0  0
  9 10  2  0  0  0  0
 10 11  1  0  0  0  0
 11 12  1  0  0  0  0
  3 13  1  0  0  0  0
 13 21  1  0  0  0  0
 13 14  2  0  0  0  0
 14 15  1  0  0  0  0
 15 20  2  0  0  0  0
 15 16  1  0  0  0  0
 16 17  2  0  0  0  0
 17 18  1  0  0  0  0
 18 19  2  0  0  0  0
 19 20  1  0  0  0  0
 20 21  1  0  0  0  0
M  END
> <Value>
5.300000202445418

> <Relation>
<

> <SourceURI>
mol:CHEMBL546797

$$$$

Generated by Molecular Materials Informatics

 19 21  0  0  0  0  0  0  0  0999 V2000
    5.0169   -0.2924    0.0000 O   0  0  0  0  0  0  0  0  0  0  0  0
   -1.6771    1.8111    0.0000 N   0  0  0  0  0  0  0  0  0  0  0  0
   -2.5587    0.5976    0.0000 N   0  0  0  0  0  0  0  0  0  0  0  0
    6.0205   -1.4071    0.0000 N   0  0  0  0  0  0  0  0  0  0  0  0
   -2.1406   -2.0426    0.0000 N   0  0  0  0  0  0  0  0  0  0  0  0
   -0.2506   -0.1524    0.0000 C   0  0  0  0  0  0  0  0  0  0  0  0
    2.3476   -0.1524    0.0000 C   0  0  0  0  0  0  0  0  0  0  0  0
   -0.2506    1.3476    0.0000 C   0  0  0  0  0  0  0  0  0  0  0  0
    3.6465   -0.9024    0.0000 C   0  0  0  0  0  0  0  0  0  0  0  0
    1.0485   -0.9024    0.0000 C   0  0  0  0  0  0  0  0  0  0  0  0
   -1.6771   -0.6160    0.0000 C   0  0  0  0  0  0  0  0  0  0  0  0
    2.3476    1.3476    0.0000 C   0  0  0  0  0  0  0  0  0  0  0  0
    1.0485    2.0976    0.0000 C   0  0  0  0  0  0  0  0  0  0  0  0
    3.8034   -2.3942    0.0000 C   0  0  0  0  0  0  0  0  0  0  0  0
    5.2705   -2.7062    0.0000 C   0  0  0  0  0  0  0  0  0  0  0  0
    5.8807   -4.0764    0.0000 C   0  0  0  0  0  0  0  0  0  0  0  0
    4.9991   -5.2900    0.0000 C   0  0  0  0  0  0  0  0  0  0  0  0
    5.6091   -6.6602    0.0000 C   0  0  0  0  0  0  0  0  0  0  0  0
    3.5073   -5.1331    0.0000 C   0  0  0  0  0  0  0  0  0  0  0  0
  1  4  1  0  0  0  0
  1  9  1  0  0  0  0
  2  3  1  0  0  0  0
  2  8  1  0  0  0  0
  3 11  2  0  0  0  0
  4 15  2  0  0  0  0
  5 11  1  0  0  0  0
  6  8  1  0  0  0  0
  6 10  2  0  0  0  0
  6 11  1  0  0  0  0
  7  9  1  0  0  0  0
  7 10  1  0  0  0  0
  7 12  2  0  0  0  0
  8 13  2  0  0  0  0
  9 14  2  0  0  0  0
 12 13  1  0  0  0  0
 14 15  1  0  0  0  0
 15 16  1  0  0  0  0
 16 17  1  0  0  0  0
 17 18  1  0  0  0  0
 17 19  1  0  0  0  0
M  END
> <Value>
7.599980364934842

> <Relation>
=

> <SourceURI>
mol:CHEMBL1966343

$$$$

Generated by Molecular Materials Informatics

 38 41  0  0  0  0  0  0  0  0999 V2000
  -12.0647   -5.2331    0.0000 O   0  0  0  0  0  0  0  0  0  0  0  0
   -2.6451   -2.1960    0.0000 O   0  0  0  0  0  0  0  0  0  0  0  0
    2.5511   -3.6960    0.0000 O   0  0  0  0  0  0  0  0  0  0  0  0
    6.4482   -4.4460    0.0000 O   0  0  0  0  0  0  0  0  0  0  0  0
   -7.8413   -3.6960    0.0000 N   0  0  0  0  0  0  0  0  0  0  0  0
   -7.9980   -2.2042    0.0000 N   0  0  0  0  0  0  0  0  0  0  0  0
   -9.5235   -5.7733    0.0000 N   0  0  0  0  0  0  0  0  0  0  0  0
  -11.2618   -7.7042    0.0000 N   0  0  0  0  0  0  0  0  0  0  0  0
   -1.3460   -4.4460    0.0000 N   0  0  0  0  0  0  0  0  0  0  0  0
   -9.2116   -4.3062    0.0000 C   0  0  0  0  0  0  0  0  0  0  0  0
   -9.4653   -1.8924    0.0000 C   0  0  0  0  0  0  0  0  0  0  0  0
   -6.5422   -4.4460    0.0000 C   0  0  0  0  0  0  0  0  0  0  0  0
  -10.2153   -3.1915    0.0000 C   0  0  0  0  0  0  0  0  0  0  0  0
  -10.0753   -0.5220    0.0000 C   0  0  0  0  0  0  0  0  0  0  0  0
   -5.2431   -3.6960    0.0000 C   0  0  0  0  0  0  0  0  0  0  0  0
   -3.9442   -4.4460    0.0000 C   0  0  0  0  0  0  0  0  0  0  0  0
   -6.5422   -5.9460    0.0000 C   0  0  0  0  0  0  0  0  0  0  0  0
  -10.9500   -6.2369    0.0000 C   0  0  0  0  0  0  0  0  0  0  0  0
  -10.1471   -8.7078    0.0000 C   0  0  0  0  0  0  0  0  0  0  0  0
  -10.4591  -10.1751    0.0000 C   0  0  0  0  0  0  0  0  0  0  0  0
   -9.3444  -11.1787    0.0000 C   0  0  0  0  0  0  0  0  0  0  0  0
   -3.9442   -5.9460    0.0000 C   0  0  0  0  0  0  0  0  0  0  0  0
   -5.2431   -6.6960    0.0000 C   0  0  0  0  0  0  0  0  0  0  0  0
   -2.6451   -3.6960    0.0000 C   0  0  0  0  0  0  0  0  0  0  0  0
  -10.6855    0.8482    0.0000 C   0  0  0  0  0  0  0  0  0  0  0  0
  -11.4456   -1.1322    0.0000 C   0  0  0  0  0  0  0  0  0  0  0  0
   -8.7051    0.0880    0.0000 C   0  0  0  0  0  0  0  0  0  0  0  0
   -8.7206   -8.2442    0.0000 C   0  0  0  0  0  0  0  0  0  0  0  0
  -11.8856  -10.6386    0.0000 C   0  0  0  0  0  0  0  0  0  0  0  0
   -7.9178  -10.7151    0.0000 C   0  0  0  0  0  0  0  0  0  0  0  0
   -9.6562  -12.6460    0.0000 C   0  0  0  0  0  0  0  0  0  0  0  0
   -7.6058   -9.2480    0.0000 C   0  0  0  0  0  0  0  0  0  0  0  0
  -12.1975  -12.1058    0.0000 C   0  0  0  0  0  0  0  0  0  0  0  0
  -11.0827  -13.1095    0.0000 C   0  0  0  0  0  0  0  0  0  0  0  0
   -0.0471   -3.6960    0.0000 C   0  0  0  0  0  0  0  0  0  0  0  0
    1.2520   -4.4460    0.0000 C   0  0  0  0  0  0  0  0  0  0  0  0
    3.8502   -4.4460    0.0000 C   0  0  0  0  0  0  0  0  0  0  0  0
    5.1491   -3.6960    0.0000 C   0  0  0  0  0  0  0  0  0  0  0  0
  1 18  2  0  0  0  0
  2 24  2  0  0  0  0
  3 36  1  0  0  0  0
  3 37  1  0  0  0  0
  4 38  1  0  0  0  0
  5  6  1  0  0  0  0
  5 10  1  0  0  0  0
  5 12  1  0  0  0  0
  6 11  2  0  0  0  0
  7 10  1  0  0  0  0
  7 18  1  0  0  0  0
  8 18  1  0  0  0  0
  8 19  1  0  0  0  0
  9 24  1  0  0  0  0
  9 35  1  0  0  0  0
 10 13  2  0  0  0  0
 11 13  1  0  0  0  0
 11 14  1  0  0  0  0
 12 15  1  0  0  0  0
 12 17  2  0  0  0  0
 14 25  1  0  0  0  0
 14 26  1  0  0  0  0
 14 27  1  0  0  0  0
 15 16  2  0  0  0  0
 16 22  1  0  0  0  0
 16 24  1  0  0  0  0
 17 23  1  0  0  0  0
 19 20  1  0  0  0  0
 19 28  2  0  0  0  0
 20 21  1  0  0  0  0
 20 29  2  0  0  0  0
 21 30  1  0  0  0  0
 21 31  2  0  0  0  0
 22 23  2  0  0  0  0
 28 32  1  0  0  0  0
 29 33  1  0  0  0  0
 30 32  2  0  0  0  0
 31 34  1  0  0  0  0
 33 34  2  0  0  0  0
 35 36  1  0  0  0  0
 37 38  1  0  0  0  0
M  END
> <Value>
5.300000202445418

> <Relation>
<

> <SourceURI>
mol:CHEMBL1978271

$$$$

Generated by Molecular Materials Informatics

 20 22  0  0  0  0  0  0  0  0999 V2000
    6.9086   -1.2792    0.0000 O   0  0  0  0  0  0  0  0  0  0  0  0
   -2.3121    0.6843    0.0000 N   0  0  0  0  0  0  0  0  0  0  0  0
   -3.1937   -0.5291    0.0000 N   0  0  0  0  0  0  0  0  0  0  0  0
    4.3106   -4.2792    0.0000 N   0  0  0  0  0  0  0  0  0  0  0  0
    8.2077    2.4709    0.0000 N   0  0  0  0  0  0  0  0  0  0  0  0
   -0.8855   -1.2792    0.0000 C   0  0  0  0  0  0  0  0  0  0  0  0
   -0.8855    0.2209    0.0000 C   0  0  0  0  0  0  0  0  0  0  0  0
    1.7126   -1.2792    0.0000 C   0  0  0  0  0  0  0  0  0  0  0  0
    0.4135   -2.0292    0.0000 C   0  0  0  0  0  0  0  0  0  0  0  0
   -2.3121   -1.7428    0.0000 C   0  0  0  0  0  0  0  0  0  0  0  0
    3.0115   -2.0292    0.0000 C   0  0  0  0  0  0  0  0  0  0  0  0
    0.4135    0.9709    0.0000 C   0  0  0  0  0  0  0  0  0  0  0  0
    1.7126    0.2209    0.0000 C   0  0  0  0  0  0  0  0  0  0  0  0
    4.3106   -1.2792    0.0000 C   0  0  0  0  0  0  0  0  0  0  0  0
    5.6097   -2.0292    0.0000 C   0  0  0  0  0  0  0  0  0  0  0  0
    3.0115   -3.5292    0.0000 C   0  0  0  0  0  0  0  0  0  0  0  0
    5.6097   -3.5292    0.0000 C   0  0  0  0  0  0  0  0  0  0  0  0
   -2.7755   -3.1693    0.0000 C   0  0  0  0  0  0  0  0  0  0  0  0
    6.9086    0.2209    0.0000 C   0  0  0  0  0  0  0  0  0  0  0  0
    8.2077    0.9709    0.0000 C   0  0  0  0  0  0  0  0  0  0  0  0
  1 15  1  0  0  0  0
  1 19  1  0  0  0  0
  2  3  1  0  0  0  0
  2  7  1  0  0  0  0
  3 10  2  0  0  0  0
  4 16  1  0  0  0  0
  4 17  2  0  0  0  0
  5 20  1  0  0  0  0
  6  7  1  0  0  0  0
  6  9  2  0  0  0  0
  6 10  1  0  0  0  0
  7 12  2  0  0  0  0
  8  9  1  0  0  0  0
  8 11  1  0  0  0  0
  8 13  2  0  0  0  0
 10 18  1  0  0  0  0
 11 14  1  0  0  0  0
 11 16  2  0  0  0  0
 12 13  1  0  0  0  0
 14 15  2  0  0  0  0
 15 17  1  0  0  0  0
 19 20  1  0  0  0  0
M  END
> <Value>
5.899998417198648

> <Relation>
=

> <SourceURI>
mol:CHEMBL1967887

$$$$

Generated by Molecular Materials Informatics

 37 41  0  0  0  0  0  0  0  0999 V2000
    5.9480   -6.2047    0.0000 F   0  0  0  0  0  0  0  0  0  0  0  0
    0.7518    2.7953    0.0000 O   0  0  0  0  0  0  0  0  0  0  0  0
    2.0509   -9.9547    0.0000 O   0  0  0  0  0  0  0  0  0  0  0  0
   -1.9738    1.0087    0.0000 N   0  0  0  0  0  0  0  0  0  0  0  0
   -2.8554   -0.2047    0.0000 N   0  0  0  0  0  0  0  0  0  0  0  0
   -2.4373   -2.8449    0.0000 N   0  0  0  0  0  0  0  0  0  0  0  0
    0.7518   -7.7047    0.0000 N   0  0  0  0  0  0  0  0  0  0  0  0
    3.3498   -7.7047    0.0000 N   0  0  0  0  0  0  0  0  0  0  0  0
   -1.8464    7.2953    0.0000 N   0  0  0  0  0  0  0  0  0  0  0  0
   -0.5473   -0.9547    0.0000 C   0  0  0  0  0  0  0  0  0  0  0  0
   -0.5473    0.5453    0.0000 C   0  0  0  0  0  0  0  0  0  0  0  0
    0.7518   -1.7047    0.0000 C   0  0  0  0  0  0  0  0  0  0  0  0
   -1.9738   -1.4184    0.0000 C   0  0  0  0  0  0  0  0  0  0  0  0
    0.7518    1.2953    0.0000 C   0  0  0  0  0  0  0  0  0  0  0  0
    0.7518   -3.2047    0.0000 C   0  0  0  0  0  0  0  0  0  0  0  0
    2.0509   -0.9547    0.0000 C   0  0  0  0  0  0  0  0  0  0  0  0
    2.0509    0.5453    0.0000 C   0  0  0  0  0  0  0  0  0  0  0  0
    2.0509   -3.9547    0.0000 C   0  0  0  0  0  0  0  0  0  0  0  0
   -0.5473   -3.9547    0.0000 C   0  0  0  0  0  0  0  0  0  0  0  0
    0.7518   -6.2047    0.0000 C   0  0  0  0  0  0  0  0  0  0  0  0
    2.0509   -5.4547    0.0000 C   0  0  0  0  0  0  0  0  0  0  0  0
   -0.5473   -5.4547    0.0000 C   0  0  0  0  0  0  0  0  0  0  0  0
   -0.5473    3.5453    0.0000 C   0  0  0  0  0  0  0  0  0  0  0  0
    2.0509   -8.4547    0.0000 C   0  0  0  0  0  0  0  0  0  0  0  0
    4.6489   -8.4547    0.0000 C   0  0  0  0  0  0  0  0  0  0  0  0
    5.9480   -7.7047    0.0000 C   0  0  0  0  0  0  0  0  0  0  0  0
    4.6489   -9.9547    0.0000 C   0  0  0  0  0  0  0  0  0  0  0  0
   -0.5473    5.0453    0.0000 C   0  0  0  0  0  0  0  0  0  0  0  0
    5.9480  -10.7047    0.0000 C   0  0  0  0  0  0  0  0  0  0  0  0
    7.2469   -8.4547    0.0000 C   0  0  0  0  0  0  0  0  0  0  0  0
    7.2469   -9.9547    0.0000 C   0  0  0  0  0  0  0  0  0  0  0  0
   -1.8464    5.7953    0.0000 C   0  0  0  0  0  0  0  0  0  0  0  0
    5.9480  -12.2047    0.0000 C   0  0  0  0  0  0  0  0  0  0  0  0
   -3.0598    8.1769    0.0000 C   0  0  0  0  0  0  0  0  0  0  0  0
   -0.6327    8.1769    0.0000 C   0  0  0  0  0  0  0  0  0  0  0  0
   -2.5964    9.6034    0.0000 C   0  0  0  0  0  0  0  0  0  0  0  0
   -1.0964    9.6034    0.0000 C   0  0  0  0  0  0  0  0  0  0  0  0
  1 26  1  0  0  0  0
  2 14  1  0  0  0  0
  2 23  1  0  0  0  0
  3 24  2  0  0  0  0
  4  5  1  0  0  0  0
  4 11  1  0  0  0  0
  5 13  2  0  0  0  0
  6 13  1  0  0  0  0
  7 20  1  0  0  0  0
  7 24  1  0  0  0  0
  8 24  1  0  0  0  0
  8 25  1  0  0  0  0
  9 32  1  0  0  0  0
  9 34  1  0  0  0  0
  9 35  1  0  0  0  0
 10 11  2  0  0  0  0
 10 12  1  0  0  0  0
 10 13  1  0  0  0  0
 11 14  1  0  0  0  0
 12 15  1  0  0  0  0
 12 16  2  0  0  0  0
 14 17  2  0  0  0  0
 15 18  2  0  0  0  0
 15 19  1  0  0  0  0
 16 17  1  0  0  0  0
 18 21  1  0  0  0  0
 19 22  2  0  0  0  0
 20 21  2  0  0  0  0
 20 22  1  0  0  0  0
 23 28  1  0  0  0  0
 25 26  1  0  0  0  0
 25 27  2  0  0  0  0
 26 30  2  0  0  0  0
 27 29  1  0  0  0  0
 28 32  1  0  0  0  0
 29 31  2  0  0  0  0
 29 33  1  0  0  0  0
 30 31  1  0  0  0  0
 34 36  2  0  0  0  0
 35 37  2  0  0  0  0
 36 37  1  0  0  0  0
M  END
> <Value>
5.300000202445418

> <Relation>
<

> <SourceURI>
mol:CHEMBL2007266

$$$$

Generated by Molecular Materials Informatics

 24 26  0  0  0  0  0  0  0  0999 V2000
   -0.8443    0.3375    0.0000 O   0  0  0  0  0  0  0  0  0  0  0  0
   -2.1434   -0.4125    0.0000 O   0  0  0  0  0  0  0  0  0  0  0  0
    1.7537   -2.6625    0.0000 N   0  0  0  0  0  0  0  0  0  0  0  0
    1.7537    0.3375    0.0000 N   0  0  0  0  0  0  0  0  0  0  0  0
   -3.4425   -2.6625    0.0000 N   0  0  0  0  0  0  0  0  0  0  0  0
   -8.6387    0.3375    0.0000 N   0  0  0  0  0  0  0  0  0  0  0  0
    3.0528   -1.9125    0.0000 C   0  0  0  0  0  0  0  0  0  0  0  0
    0.4546   -1.9125    0.0000 C   0  0  0  0  0  0  0  0  0  0  0  0
    3.0528   -0.4125    0.0000 C   0  0  0  0  0  0  0  0  0  0  0  0
    0.4546   -0.4125    0.0000 C   0  0  0  0  0  0  0  0  0  0  0  0
   -0.8443   -2.6625    0.0000 C   0  0  0  0  0  0  0  0  0  0  0  0
    4.3517   -2.6625    0.0000 C   0  0  0  0  0  0  0  0  0  0  0  0
    4.3517    0.3375    0.0000 C   0  0  0  0  0  0  0  0  0  0  0  0
   -2.1434   -1.9125    0.0000 C   0  0  0  0  0  0  0  0  0  0  0  0
   -4.7416   -1.9125    0.0000 C   0  0  0  0  0  0  0  0  0  0  0  0
    5.6508   -1.9125    0.0000 C   0  0  0  0  0  0  0  0  0  0  0  0
    5.6508   -0.4125    0.0000 C   0  0  0  0  0  0  0  0  0  0  0  0
   -7.3396   -0.4125    0.0000 C   0  0  0  0  0  0  0  0  0  0  0  0
   -6.0405   -2.6625    0.0000 C   0  0  0  0  0  0  0  0  0  0  0  0
   -4.7416   -0.4125    0.0000 C   0  0  0  0  0  0  0  0  0  0  0  0
   -7.3396   -1.9125    0.0000 C   0  0  0  0  0  0  0  0  0  0  0  0
   -6.0405    0.3375    0.0000 C   0  0  0  0  0  0  0  0  0  0  0  0
   -9.9376   -0.4125    0.0000 C   0  0  0  0  0  0  0  0  0  0  0  0
   -8.6387    1.8375    0.0000 C   0  0  0  0  0  0  0  0  0  0  0  0
  1 10  2  0  0  0  0
  2 14  2  0  0  0  0
  3  7  1  0  0  0  0
  3  8  1  0  0  0  0
  4  9  1  0  0  0  0
  4 10  1  0  0  0  0
  5 14  1  0  0  0  0
  5 15  1  0  0  0  0
  6 18  1  0  0  0  0
  6 23  1  0  0  0  0
  6 24  1  0  0  0  0
  7  9  1  0  0  0  0
  7 12  2  0  0  0  0
  8 10  1  0  0  0  0
  8 11  1  0  0  0  0
  9 13  2  0  0  0  0
 11 14  1  0  0  0  0
 12 16  1  0  0  0  0
 13 17  1  0  0  0  0
 15 19  2  0  0  0  0
 15 20  1  0  0  0  0
 16 17  2  0  0  0  0
 18 21  2  0  0  0  0
 18 22  1  0  0  0  0
 19 21  1  0  0  0  0
 20 22  2  0  0  0  0
M  END
> <Value>
5.300000202445418

> <Relation>
<

> <SourceURI>
mol:CHEMBL1985469

$$$$

Generated by Molecular Materials Informatics

 18 20  0  0  0  0  0  0  0  0999 V2000
    5.5532    5.4000    0.0000 O   0  0  0  0  0  0  0  0  0  0  0  0
    0.3570   -2.1000    0.0000 N   0  0  0  0  0  0  0  0  0  0  0  0
   -2.3686   -1.8135    0.0000 N   0  0  0  0  0  0  0  0  0  0  0  0
    1.6559    0.1500    0.0000 C   0  0  0  0  0  0  0  0  0  0  0  0
   -0.9421    0.1500    0.0000 C   0  0  0  0  0  0  0  0  0  0  0  0
   -0.9421   -1.3500    0.0000 C   0  0  0  0  0  0  0  0  0  0  0  0
    2.9550    0.9000    0.0000 C   0  0  0  0  0  0  0  0  0  0  0  0
    0.3570    0.9000    0.0000 C   0  0  0  0  0  0  0  0  0  0  0  0
    1.6559   -1.3500    0.0000 C   0  0  0  0  0  0  0  0  0  0  0  0
    2.9550    2.4000    0.0000 C   0  0  0  0  0  0  0  0  0  0  0  0
   -2.3686    0.6135    0.0000 C   0  0  0  0  0  0  0  0  0  0  0  0
    4.2541    3.1500    0.0000 C   0  0  0  0  0  0  0  0  0  0  0  0
    4.2541    0.1500    0.0000 C   0  0  0  0  0  0  0  0  0  0  0  0
   -3.2503   -0.6000    0.0000 C   0  0  0  0  0  0  0  0  0  0  0  0
    5.5532    2.4000    0.0000 C   0  0  0  0  0  0  0  0  0  0  0  0
    5.5532    0.9000    0.0000 C   0  0  0  0  0  0  0  0  0  0  0  0
    4.2541    4.6500    0.0000 C   0  0  0  0  0  0  0  0  0  0  0  0
    2.9550    5.4000    0.0000 C   0  0  0  0  0  0  0  0  0  0  0  0
  1 17  2  0  0  0  0
  2  6  2  0  0  0  0
  2  9  1  0  0  0  0
  3  6  1  0  0  0  0
  3 14  1  0  0  0  0
  4  7  1  0  0  0  0
  4  8  1  0  0  0  0
  4  9  2  0  0  0  0
  5  6  1  0  0  0  0
  5  8  2  0  0  0  0
  5 11  1  0  0  0  0
  7 10  2  0  0  0  0
  7 13  1  0  0  0  0
 10 12  1  0  0  0  0
 11 14  2  0  0  0  0
 12 15  2  0  0  0  0
 12 17  1  0  0  0  0
 13 16  2  0  0  0  0
 15 16  1  0  0  0  0
 17 18  1  0  0  0  0
M  END
> <Value>
5.700000503883016

> <Relation>
<

> <SourceURI>
mol:CHEMBL2000568

$$$$

Generated by Molecular Materials Informatics

 28 31  0  0  0  0  0  0  0  0999 V2000
   -1.1514   -3.7358    0.0000 S   0  0  0  0  0  0  0  0  0  0  0  0
   -0.5347    5.2004    0.0000 O   0  0  0  0  0  0  0  0  0  0  0  0
    1.5742   -4.0224    0.0000 N   0  0  0  0  0  0  0  0  0  0  0  0
    2.8732   -1.7724    0.0000 N   0  0  0  0  0  0  0  0  0  0  0  0
    1.5742    0.4776    0.0000 N   0  0  0  0  0  0  0  0  0  0  0  0
   -3.0056    4.3975    0.0000 N   0  0  0  0  0  0  0  0  0  0  0  0
   -2.4654    6.9387    0.0000 N   0  0  0  0  0  0  0  0  0  0  0  0
    0.2752   -1.7724    0.0000 C   0  0  0  0  0  0  0  0  0  0  0  0
   -1.1514   -1.3089    0.0000 C   0  0  0  0  0  0  0  0  0  0  0  0
    0.2752   -3.2724    0.0000 C   0  0  0  0  0  0  0  0  0  0  0  0
   -1.6150    0.1178    0.0000 C   0  0  0  0  0  0  0  0  0  0  0  0
    1.5742   -1.0224    0.0000 C   0  0  0  0  0  0  0  0  0  0  0  0
   -2.0330   -2.5224    0.0000 C   0  0  0  0  0  0  0  0  0  0  0  0
   -3.0821    0.4296    0.0000 C   0  0  0  0  0  0  0  0  0  0  0  0
   -0.6112    1.2325    0.0000 C   0  0  0  0  0  0  0  0  0  0  0  0
    2.8732   -3.2724    0.0000 C   0  0  0  0  0  0  0  0  0  0  0  0
   -2.5419    2.9709    0.0000 C   0  0  0  0  0  0  0  0  0  0  0  0
   -3.5458    1.8562    0.0000 C   0  0  0  0  0  0  0  0  0  0  0  0
   -1.0748    2.6591    0.0000 C   0  0  0  0  0  0  0  0  0  0  0  0
   -2.0018    5.5122    0.0000 C   0  0  0  0  0  0  0  0  0  0  0  0
   -1.4618    8.0535    0.0000 C   0  0  0  0  0  0  0  0  0  0  0  0
   -0.9216   10.5949    0.0000 C   0  0  0  0  0  0  0  0  0  0  0  0
   -1.9252    9.4802    0.0000 C   0  0  0  0  0  0  0  0  0  0  0  0
    0.5457   10.2829    0.0000 C   0  0  0  0  0  0  0  0  0  0  0  0
    0.0055    7.7416    0.0000 C   0  0  0  0  0  0  0  0  0  0  0  0
    1.0093    8.8564    0.0000 C   0  0  0  0  0  0  0  0  0  0  0  0
   -1.3850   12.0215    0.0000 C   0  0  0  0  0  0  0  0  0  0  0  0
    1.5493   11.3977    0.0000 C   0  0  0  0  0  0  0  0  0  0  0  0
  1 10  1  0  0  0  0
  1 13  1  0  0  0  0
  2 20  2  0  0  0  0
  3 10  2  0  0  0  0
  3 16  1  0  0  0  0
  4 12  1  0  0  0  0
  4 16  2  0  0  0  0
  5 12  1  0  0  0  0
  6 17  1  0  0  0  0
  6 20  1  0  0  0  0
  7 20  1  0  0  0  0
  7 21  1  0  0  0  0
  8  9  1  0  0  0  0
  8 10  1  0  0  0  0
  8 12  2  0  0  0  0
  9 11  1  0  0  0  0
  9 13  2  0  0  0  0
 11 14  2  0  0  0  0
 11 15  1  0  0  0  0
 14 18  1  0  0  0  0
 15 19  2  0  0  0  0
 17 18  2  0  0  0  0
 17 19  1  0  0  0  0
 21 23  1  0  0  0  0
 21 25  2  0  0  0  0
 22 23  2  0  0  0  0
 22 24  1  0  0  0  0
 22 27  1  0  0  0  0
 24 26  2  0  0  0  0
 24 28  1  0  0  0  0
 25 26  1  0  0  0  0
M  END
> <Value>
5.899998417198648

> <Relation>
<

> <SourceURI>
mol:CHEMBL2000335

$$$$

Generated by Molecular Materials Informatics

 11 12  0  0  0  0  0  0  0  0999 V2000
   -1.7841   -1.1385    0.0000 S   0  0  0  0  0  0  0  0  0  0  0  0
    3.5396   -1.4250    0.0000 O   0  0  0  0  0  0  0  0  0  0  0  0
    0.9416   -1.4250    0.0000 N   0  0  0  0  0  0  0  0  0  0  0  0
    2.2405    0.8250    0.0000 N   0  0  0  0  0  0  0  0  0  0  0  0
    0.9416    3.0750    0.0000 N   0  0  0  0  0  0  0  0  0  0  0  0
   -0.3575    0.8250    0.0000 C   0  0  0  0  0  0  0  0  0  0  0  0
   -0.3575   -0.6750    0.0000 C   0  0  0  0  0  0  0  0  0  0  0  0
    0.9416    1.5750    0.0000 C   0  0  0  0  0  0  0  0  0  0  0  0
    2.2405   -0.6750    0.0000 C   0  0  0  0  0  0  0  0  0  0  0  0
   -1.7841    1.2885    0.0000 C   0  0  0  0  0  0  0  0  0  0  0  0
   -2.6657    0.0750    0.0000 C   0  0  0  0  0  0  0  0  0  0  0  0
  1  7  1  0  0  0  0
  1 11  1  0  0  0  0
  2  9  2  0  0  0  0
  3  7  1  0  0  0  0
  3  9  1  0  0  0  0
  4  8  2  0  0  0  0
  4  9  1  0  0  0  0
  5  8  1  0  0  0  0
  6  7  2  0  0  0  0
  6  8  1  0  0  0  0
  6 10  1  0  0  0  0
 10 11  2  0  0  0  0
M  END
> <Value>
4.800000052738446

> <Relation>
=

> <SourceURI>
mol:CHEMBL2007097

$$$$

Generated by Molecular Materials Informatics

 35 38  0  0  0  0  0  0  0  0999 V2000
    7.0088   -4.4417    0.0000 N   0  0  0  0  0  0  0  0  0  0  0  0
    7.0066   -5.9459    0.0000 C   0  0  0  0  0  0  0  0  0  0  0  0
    8.3064   -6.6966    0.0000 N   0  0  0  0  0  0  0  0  0  0  0  0
    9.6089   -5.9452    0.0000 C   0  0  0  0  0  0  0  0  0  0  0  0
    9.6037   -4.4351    0.0000 C   0  0  0  0  0  0  0  0  0  0  0  0
    8.3031   -3.6911    0.0000 C   0  0  0  0  0  0  0  0  0  0  0  0
   10.9000   -3.6801    0.0000 C   0  0  0  0  0  0  0  0  0  0  0  0
   12.2018   -4.4253    0.0000 F   0  0  0  0  0  0  0  0  0  0  0  0
   10.8943   -2.1803    0.0000 F   0  0  0  0  0  0  0  0  0  0  0  0
   12.1931   -2.9191    0.0000 F   0  0  0  0  0  0  0  0  0  0  0  0
    5.7071   -6.6950    0.0000 N   0  0  0  0  0  0  0  0  0  0  0  0
    5.7060   -8.1950    0.0000 C   0  0  0  0  0  0  0  0  0  0  0  0
    4.4060   -8.9410    0.0000 C   0  0  0  0  0  0  0  0  0  0  0  0
    7.0075  -10.4351    0.0000 C   0  0  0  0  0  0  0  0  0  0  0  0
    7.0030   -8.9390    0.0000 C   0  0  0  0  0  0  0  0  0  0  0  0
    5.7036  -11.1923    0.0000 C   0  0  0  0  0  0  0  0  0  0  0  0
    4.4075  -10.4483    0.0000 C   0  0  0  0  0  0  0  0  0  0  0  0
    3.2994  -11.4513    0.0000 C   0  0  0  0  0  0  0  0  0  0  0  0
    3.9110  -12.8151    0.0000 C   0  0  0  0  0  0  0  0  0  0  0  0
    5.3967  -12.6547    0.0000 N   0  0  0  0  0  0  0  0  0  0  0  0
    3.1645  -14.1161    0.0000 O   0  0  0  0  0  0  0  0  0  0  0  0
   10.9092   -6.6930    0.0000 N   0  0  0  0  0  0  0  0  0  0  0  0
   10.9116   -8.1930    0.0000 C   0  0  0  0  0  0  0  0  0  0  0  0
   12.2117   -8.9410    0.0000 C   0  0  0  0  0  0  0  0  0  0  0  0
   12.2056  -10.4362    0.0000 C   0  0  0  0  0  0  0  0  0  0  0  0
   13.5043  -11.1840    0.0000 C   0  0  0  0  0  0  0  0  0  0  0  0
   14.8040  -10.4318    0.0000 C   0  0  0  0  0  0  0  0  0  0  0  0
   14.7969   -8.9241    0.0000 N   0  0  0  0  0  0  0  0  0  0  0  0
   13.4971   -8.1831    0.0000 C   0  0  0  0  0  0  0  0  0  0  0  0
   13.4861   -6.6831    0.0000 N   0  0  0  0  0  0  0  0  0  0  0  0
   14.7796   -5.9235    0.0000 S   0  0  0  0  0  0  0  0  0  0  0  0
   12.1816   -5.9426    0.0000 C   0  0  0  0  0  0  0  0  0  0  0  0
   16.0841   -6.6640    0.0000 C   0  0  0  0  0  0  0  0  0  0  0  0
   13.7084   -4.8508    0.0000 O   0  0  0  0  0  0  0  0  0  0  0  0
   15.5190   -4.6161    0.0000 O   0  0  0  0  0  0  0  0  0  0  0  0
  1  2  2  0  0  0  0
  2  3  1  0  0  0  0
  3  4  2  0  0  0  0
  4  5  1  0  0  0  0
  5  6  2  0  0  0  0
  6  1  1  0  0  0  0
  5  7  1  0  0  0  0
  7  8  1  0  0  0  0
  7  9  1  0  0  0  0
  7 10  1  0  0  0  0
  2 11  1  0  0  0  0
 11 12  1  0  0  0  0
 12 13  2  0  0  0  0
 13 17  1  0  0  0  0
 16 14  1  0  0  0  0
 14 15  2  0  0  0  0
 15 12  1  0  0  0  0
 16 17  2  0  0  0  0
 17 18  1  0  0  0  0
 18 19  1  0  0  0  0
 19 20  1  0  0  0  0
 20 16  1  0  0  0  0
 19 21  2  0  0  0  0
  4 22  1  0  0  0  0
 22 23  1  0  0  0  0
 23 24  1  0  0  0  0
 24 25  2  0  0  0  0
 25 26  1  0  0  0  0
 26 27  2  0  0  0  0
 27 28  1  0  0  0  0
 28 29  2  0  0  0  0
 29 24  1  0  0  0  0
 29 30  1  0  0  0  0
 30 31  1  0  0  0  0
 30 32  1  0  0  0  0
 31 33  1  0  0  0  0
 31 34  2  0  0  0  0
 31 35  2  0  0  0  0
M  END
> <Value>
6.0

> <Relation>
=

> <SourceURI>
mol:CHEMBL1084546

$$$$

Generated by Molecular Materials Informatics

 36 40  0  0  0  0  0  0  0  0999 V2000
    4.5183  -10.5273    0.0000 F   0  0  0  0  0  0  0  0  0  0  0  0
    6.5674  -11.0764    0.0000 F   0  0  0  0  0  0  0  0  0  0  0  0
    5.0674   -8.4784    0.0000 F   0  0  0  0  0  0  0  0  0  0  0  0
    5.8174   -5.2773    0.0000 O   0  0  0  0  0  0  0  0  0  0  0  0
   -0.6779   -0.0273    0.0000 N   0  0  0  0  0  0  0  0  0  0  0  0
   -2.1044   -0.4909    0.0000 N   0  0  0  0  0  0  0  0  0  0  0  0
    0.6212    2.2227    0.0000 N   0  0  0  0  0  0  0  0  0  0  0  0
    0.6212   -2.2773    0.0000 N   0  0  0  0  0  0  0  0  0  0  0  0
   -3.9946    5.3263    0.0000 N   0  0  0  0  0  0  0  0  0  0  0  0
   -2.5679    5.7898    0.0000 N   0  0  0  0  0  0  0  0  0  0  0  0
    7.1163   -3.0273    0.0000 N   0  0  0  0  0  0  0  0  0  0  0  0
    8.4154   -5.2773    0.0000 N   0  0  0  0  0  0  0  0  0  0  0  0
   -0.6779    1.4727    0.0000 C   0  0  0  0  0  0  0  0  0  0  0  0
   -2.1044    1.9362    0.0000 C   0  0  0  0  0  0  0  0  0  0  0  0
    0.6212   -0.7773    0.0000 C   0  0  0  0  0  0  0  0  0  0  0  0
    1.9203   -0.0273    0.0000 C   0  0  0  0  0  0  0  0  0  0  0  0
   -2.5679    3.3627    0.0000 C   0  0  0  0  0  0  0  0  0  0  0  0
   -2.9861    0.7227    0.0000 C   0  0  0  0  0  0  0  0  0  0  0  0
    3.2192   -0.7773    0.0000 C   0  0  0  0  0  0  0  0  0  0  0  0
    1.9203    1.4727    0.0000 C   0  0  0  0  0  0  0  0  0  0  0  0
   -3.9946    3.8263    0.0000 C   0  0  0  0  0  0  0  0  0  0  0  0
   -1.6863    4.5763    0.0000 C   0  0  0  0  0  0  0  0  0  0  0  0
    4.5183   -0.0273    0.0000 C   0  0  0  0  0  0  0  0  0  0  0  0
    3.2192   -2.2773    0.0000 C   0  0  0  0  0  0  0  0  0  0  0  0
    5.8174   -2.2773    0.0000 C   0  0  0  0  0  0  0  0  0  0  0  0
    5.8174   -0.7773    0.0000 C   0  0  0  0  0  0  0  0  0  0  0  0
    4.5183   -3.0273    0.0000 C   0  0  0  0  0  0  0  0  0  0  0  0
    7.1163   -9.0273    0.0000 C   0  0  0  0  0  0  0  0  0  0  0  0
    5.8174   -9.7773    0.0000 C   0  0  0  0  0  0  0  0  0  0  0  0
    8.4154   -6.7773    0.0000 C   0  0  0  0  0  0  0  0  0  0  0  0
    7.1163   -7.5273    0.0000 C   0  0  0  0  0  0  0  0  0  0  0  0
    7.1163   -4.5273    0.0000 C   0  0  0  0  0  0  0  0  0  0  0  0
   -5.2081    6.2080    0.0000 C   0  0  0  0  0  0  0  0  0  0  0  0
    8.4154   -9.7773    0.0000 C   0  0  0  0  0  0  0  0  0  0  0  0
    9.7145   -7.5273    0.0000 C   0  0  0  0  0  0  0  0  0  0  0  0
    9.7145   -9.0273    0.0000 C   0  0  0  0  0  0  0  0  0  0  0  0
  1 29  1  0  0  0  0
  2 29  1  0  0  0  0
  3 29  1  0  0  0  0
  4 32  2  0  0  0  0
  5  6  1  0  0  0  0
  5 13  1  0  0  0  0
  5 15  1  0  0  0  0
  6 18  2  0  0  0  0
  7 13  1  0  0  0  0
  7 20  2  0  0  0  0
  8 15  1  0  0  0  0
  9 10  1  0  0  0  0
  9 21  1  0  0  0  0
  9 33  1  0  0  0  0
 10 22  2  0  0  0  0
 11 25  1  0  0  0  0
 11 32  1  0  0  0  0
 12 30  1  0  0  0  0
 12 32  1  0  0  0  0
 13 14  2  0  0  0  0
 14 17  1  0  0  0  0
 14 18  1  0  0  0  0
 15 16  2  0  0  0  0
 16 19  1  0  0  0  0
 16 20  1  0  0  0  0
 17 21  2  0  0  0  0
 17 22  1  0  0  0  0
 19 23  2  0  0  0  0
 19 24  1  0  0  0  0
 23 26  1  0  0  0  0
 24 27  2  0  0  0  0
 25 26  2  0  0  0  0
 25 27  1  0  0  0  0
 28 29  1  0  0  0  0
 28 31  2  0  0  0  0
 28 34  1  0  0  0  0
 30 31  1  0  0  0  0
 30 35  2  0  0  0  0
 34 36  2  0  0  0  0
 35 36  1  0  0  0  0
M  END
> <Value>
5.899998417198648

> <Relation>
<

> <SourceURI>
mol:CHEMBL1988717

$$$$

Generated by Molecular Materials Informatics

 25 27  0  0  0  0  0  0  0  0999 V2000
    1.9812   -6.3186    0.0000 O   0  0  0  0  0  0  0  0  0  0  0  0
    1.9812   -1.8187    0.0000 N   0  0  0  0  0  0  0  0  0  0  0  0
   -0.6169   -3.3187    0.0000 N   0  0  0  0  0  0  0  0  0  0  0  0
    3.2802   -4.0687    0.0000 N   0  0  0  0  0  0  0  0  0  0  0  0
    0.6821    0.4312    0.0000 N   0  0  0  0  0  0  0  0  0  0  0  0
   -0.6169   -6.3186    0.0000 N   0  0  0  0  0  0  0  0  0  0  0  0
    0.6821    3.4311    0.0000 N   0  0  0  0  0  0  0  0  0  0  0  0
    1.9812   -3.3187    0.0000 C   0  0  0  0  0  0  0  0  0  0  0  0
    0.6821   -4.0687    0.0000 C   0  0  0  0  0  0  0  0  0  0  0  0
    0.6821   -1.0688    0.0000 C   0  0  0  0  0  0  0  0  0  0  0  0
   -0.6169   -1.8187    0.0000 C   0  0  0  0  0  0  0  0  0  0  0  0
    0.6821   -5.5686    0.0000 C   0  0  0  0  0  0  0  0  0  0  0  0
    4.5791   -3.3187    0.0000 C   0  0  0  0  0  0  0  0  0  0  0  0
    1.9812    1.1812    0.0000 C   0  0  0  0  0  0  0  0  0  0  0  0
    1.9812    2.6811    0.0000 C   0  0  0  0  0  0  0  0  0  0  0  0
    5.8781   -4.0687    0.0000 C   0  0  0  0  0  0  0  0  0  0  0  0
    4.5791   -1.8187    0.0000 C   0  0  0  0  0  0  0  0  0  0  0  0
    3.2802    0.4312    0.0000 C   0  0  0  0  0  0  0  0  0  0  0  0
    7.1772   -3.3187    0.0000 C   0  0  0  0  0  0  0  0  0  0  0  0
    3.2802    3.4311    0.0000 C   0  0  0  0  0  0  0  0  0  0  0  0
    5.8781   -1.0688    0.0000 C   0  0  0  0  0  0  0  0  0  0  0  0
    4.5791    1.1812    0.0000 C   0  0  0  0  0  0  0  0  0  0  0  0
    7.1772   -1.8187    0.0000 C   0  0  0  0  0  0  0  0  0  0  0  0
    4.5791    2.6811    0.0000 C   0  0  0  0  0  0  0  0  0  0  0  0
    8.4760   -4.0687    0.0000 C   0  0  0  0  0  0  0  0  0  0  0  0
  1 12  2  0  0  0  0
  2  8  2  0  0  0  0
  2 10  1  0  0  0  0
  3  9  2  0  0  0  0
  3 11  1  0  0  0  0
  4  8  1  0  0  0  0
  4 13  1  0  0  0  0
  5 10  1  0  0  0  0
  5 14  1  0  0  0  0
  6 12  1  0  0  0  0
  7 15  1  0  0  0  0
  8  9  1  0  0  0  0
  9 12  1  0  0  0  0
 10 11  2  0  0  0  0
 13 16  2  0  0  0  0
 13 17  1  0  0  0  0
 14 15  1  0  0  0  0
 14 18  1  0  0  0  0
 15 20  1  0  0  0  0
 16 19  1  0  0  0  0
 17 21  2  0  0  0  0
 18 22  1  0  0  0  0
 19 23  2  0  0  0  0
 19 25  1  0  0  0  0
 20 24  1  0  0  0  0
 21 23  1  0  0  0  0
 22 24  1  0  0  0  0
M  END
> <Value>
7.0

> <Relation>
=

> <SourceURI>
mol:CHEMBL1974328

$$$$

Generated by Molecular Materials Informatics

 42 46  0  0  0  0  0  0  0  0999 V2000
    2.5541    4.0275    0.0000 C   0  0  0  0  0  0  0  0  0  0  0  0
    3.8532    3.2775    0.0000 C   0  0  0  0  0  0  0  0  0  0  0  0
    3.8532    1.7775    0.0000 N   0  0  0  0  0  0  0  0  0  0  0  0
    2.5541    1.0275    0.0000 C   0  0  0  0  0  0  0  0  0  0  0  0
    1.2550    1.7775    0.0000 N   0  0  0  0  0  0  0  0  0  0  0  0
    1.2550    3.2775    0.0000 C   0  0  0  0  0  0  0  0  0  0  0  0
    2.5541   -0.4724    0.0000 N   0  0  0  0  0  0  0  0  0  0  0  0
    1.2550   -1.2224    0.0000 C   0  0  0  0  0  0  0  0  0  0  0  0
    1.2550   -2.7224    0.0000 C   0  0  0  0  0  0  0  0  0  0  0  0
   -0.0439   -3.4724    0.0000 C   0  0  0  0  0  0  0  0  0  0  0  0
   -1.3430   -2.7224    0.0000 C   0  0  0  0  0  0  0  0  0  0  0  0
   -1.3430   -1.2224    0.0000 C   0  0  0  0  0  0  0  0  0  0  0  0
   -0.0439   -0.4724    0.0000 C   0  0  0  0  0  0  0  0  0  0  0  0
   -0.0439    1.0275    0.0000 O   0  0  0  0  0  0  0  0  0  0  0  0
   -1.3430    1.7775    0.0000 C   0  0  0  0  0  0  0  0  0  0  0  0
   -2.6421   -3.4724    0.0000 N   0  0  0  0  0  0  0  0  0  0  0  0
   -3.9412   -2.7224    0.0000 C   0  0  0  0  0  0  0  0  0  0  0  0
   -5.2401   -3.4724    0.0000 C   0  0  0  0  0  0  0  0  0  0  0  0
   -5.2401   -4.9724    0.0000 C   0  0  0  0  0  0  0  0  0  0  0  0
   -3.9412   -5.7224    0.0000 C   0  0  0  0  0  0  0  0  0  0  0  0
   -2.6421   -4.9724    0.0000 C   0  0  0  0  0  0  0  0  0  0  0  0
   -6.5392   -5.7224    0.0000 N   0  0  0  0  0  0  0  0  0  0  0  0
   -7.8383   -4.9724    0.0000 C   0  0  0  0  0  0  0  0  0  0  0  0
   -9.1372   -5.7224    0.0000 C   0  0  0  0  0  0  0  0  0  0  0  0
   -9.1372   -7.2224    0.0000 N   0  0  0  0  0  0  0  0  0  0  0  0
   -7.8383   -7.9724    0.0000 C   0  0  0  0  0  0  0  0  0  0  0  0
   -6.5392   -7.2224    0.0000 C   0  0  0  0  0  0  0  0  0  0  0  0
  -10.4363   -7.9724    0.0000 C   0  0  0  0  0  0  0  0  0  0  0  0
    5.1521    4.0275    0.0000 N   0  0  0  0  0  0  0  0  0  0  0  0
    6.4512    3.2775    0.0000 C   0  0  0  0  0  0  0  0  0  0  0  0
    7.7503    4.0275    0.0000 C   0  0  0  0  0  0  0  0  0  0  0  0
    9.0494    3.2775    0.0000 C   0  0  0  0  0  0  0  0  0  0  0  0
    9.0494    1.7775    0.0000 C   0  0  0  0  0  0  0  0  0  0  0  0
    7.7503    1.0275    0.0000 C   0  0  0  0  0  0  0  0  0  0  0  0
    6.4512    1.7775    0.0000 C   0  0  0  0  0  0  0  0  0  0  0  0
    7.7503    5.5275    0.0000 S   0  0  0  0  0  0  0  0  0  0  0  0
    7.7503    7.0275    0.0000 C   0  0  0  0  0  0  0  0  0  0  0  0
    6.4512    7.7775    0.0000 C   0  0  0  0  0  0  0  0  0  0  0  0
    9.0494    7.7775    0.0000 C   0  0  0  0  0  0  0  0  0  0  0  0
    9.2503    5.5275    0.0000 O   0  0  0  0  0  0  0  0  0  0  0  0
    6.2503    5.5275    0.0000 O   0  0  0  0  0  0  0  0  0  0  0  0
    2.5541    5.5275    0.0000 Cl  0  0  0  0  0  0  0  0  0  0  0  0
  1  2  1  0  0  0  0
  1  6  2  0  0  0  0
  1 42  1  0  0  0  0
  2  3  2  0  0  0  0
  2 29  1  0  0  0  0
  4  3  1  0  0  0  0
  4  5  2  0  0  0  0
  4  7  1  0  0  0  0
  6  5  1  0  0  0  0
  8  7  1  0  0  0  0
  8  9  1  0  0  0  0
 13  8  2  0  0  0  0
 10  9  2  0  0  0  0
 10 11  1  0  0  0  0
 11 12  2  0  0  0  0
 11 16  1  0  0  0  0
 12 13  1  0  0  0  0
 13 14  1  0  0  0  0
 15 14  1  0  0  0  0
 17 16  1  0  0  0  0
 21 16  1  0  0  0  0
 17 18  1  0  0  0  0
 18 19  1  0  0  0  0
 19 20  1  0  0  0  0
 19 22  1  0  0  0  0
 20 21  1  0  0  0  0
 23 22  1  0  0  0  0
 27 22  1  0  0  0  0
 23 24  1  0  0  0  0
 24 25  1  0  0  0  0
 26 25  1  0  0  0  0
 28 25  1  0  0  0  0
 26 27  1  0  0  0  0
 30 29  1  0  0  0  0
 30 31  1  0  0  0  0
 30 35  2  0  0  0  0
 31 32  2  0  0  0  0
 31 36  1  0  0  0  0
 32 33  1  0  0  0  0
 33 34  2  0  0  0  0
 34 35  1  0  0  0  0
 37 36  1  0  0  0  0
 40 36  2  0  0  0  0
 41 36  2  0  0  0  0
 37 38  1  0  0  0  0
 37 39  1  0  0  0  0
M  END
> <Value>
6.399996913372259

> <Relation>
=

> <SourceURI>
mol:CHEMBL509032

$$$$

Generated by Molecular Materials Informatics

 24 26  0  0  0  0  0  0  0  0999 V2000
   11.9406  -22.7451    0.0000 N   0  0  0  0  0  0  0  0  0  0  0  0
   11.9384  -24.2499    0.0000 C   0  0  0  0  0  0  0  0  0  0  0  0
   13.2346  -25.0007    0.0000 N   0  0  0  0  0  0  0  0  0  0  0  0
   14.5425  -24.2489    0.0000 C   0  0  0  0  0  0  0  0  0  0  0  0
   14.5367  -22.7380    0.0000 C   0  0  0  0  0  0  0  0  0  0  0  0
   13.2309  -21.9947    0.0000 C   0  0  0  0  0  0  0  0  0  0  0  0
   15.8420  -24.9976    0.0000 N   0  0  0  0  0  0  0  0  0  0  0  0
   17.1405  -24.2465    0.0000 C   0  0  0  0  0  0  0  0  0  0  0  0
   18.4358  -25.0043    0.0000 C   0  0  0  0  0  0  0  0  0  0  0  0
   19.7332  -24.2545    0.0000 C   0  0  0  0  0  0  0  0  0  0  0  0
   19.7328  -22.7529    0.0000 C   0  0  0  0  0  0  0  0  0  0  0  0
   18.4238  -22.0043    0.0000 C   0  0  0  0  0  0  0  0  0  0  0  0
   17.1318  -22.7585    0.0000 C   0  0  0  0  0  0  0  0  0  0  0  0
   18.4318  -26.5043    0.0000 C   0  0  0  0  0  0  0  0  0  0  0  0
   17.1309  -27.2508    0.0000 O   0  0  0  0  0  0  0  0  0  0  0  0
   19.7290  -27.2575    0.0000 O   0  0  0  0  0  0  0  0  0  0  0  0
   10.6382  -24.9981    0.0000 N   0  0  0  0  0  0  0  0  0  0  0  0
   10.6359  -26.4981    0.0000 C   0  0  0  0  0  0  0  0  0  0  0  0
    9.3335  -27.2406    0.0000 C   0  0  0  0  0  0  0  0  0  0  0  0
    9.3308  -28.7392    0.0000 C   0  0  0  0  0  0  0  0  0  0  0  0
   10.6295  -29.4926    0.0000 C   0  0  0  0  0  0  0  0  0  0  0  0
   11.9342  -28.7364    0.0000 C   0  0  0  0  0  0  0  0  0  0  0  0
   11.9304  -27.2404    0.0000 C   0  0  0  0  0  0  0  0  0  0  0  0
   13.2347  -29.4839    0.0000 F   0  0  0  0  0  0  0  0  0  0  0  0
 11 12  1  0  0  0  0
  6  1  1  0  0  0  0
 12 13  2  0  0  0  0
 13  8  1  0  0  0  0
  1  2  2  0  0  0  0
  9 14  1  0  0  0  0
  4  7  1  0  0  0  0
 14 15  1  0  0  0  0
  3  4  2  0  0  0  0
 14 16  2  0  0  0  0
  7  8  1  0  0  0  0
  2 17  1  0  0  0  0
 17 18  1  0  0  0  0
  8  9  2  0  0  0  0
 18 19  2  0  0  0  0
  4  5  1  0  0  0  0
 19 20  1  0  0  0  0
  9 10  1  0  0  0  0
 20 21  2  0  0  0  0
  2  3  1  0  0  0  0
 21 22  1  0  0  0  0
 10 11  2  0  0  0  0
 22 23  2  0  0  0  0
 23 18  1  0  0  0  0
  5  6  2  0  0  0  0
 22 24  1  0  0  0  0
M  END
> <Value>
7.0

> <Relation>
=

> <SourceURI>
mol:CHEMBL243298

$$$$

Generated by Molecular Materials Informatics

 34 37  0  0  0  0  0  0  0  0999 V2000
   -1.8823    3.2791    0.0000 F   0  0  0  0  0  0  0  0  0  0  0  0
   -6.3823    0.6811    0.0000 F   0  0  0  0  0  0  0  0  0  0  0  0
    3.2249    3.6811    0.0000 O   0  0  0  0  0  0  0  0  0  0  0  0
    2.6600  -10.6977    0.0000 O   0  0  0  0  0  0  0  0  0  0  0  0
    1.9259   -0.0689    0.0000 N   0  0  0  0  0  0  0  0  0  0  0  0
    0.4993    1.8945    0.0000 N   0  0  0  0  0  0  0  0  0  0  0  0
    1.0395   -3.0738    0.0000 N   0  0  0  0  0  0  0  0  0  0  0  0
    4.5240    1.4311    0.0000 N   0  0  0  0  0  0  0  0  0  0  0  0
   -0.8912   -4.8122    0.0000 N   0  0  0  0  0  0  0  0  0  0  0  0
    1.5797   -5.6151    0.0000 N   0  0  0  0  0  0  0  0  0  0  0  0
    0.4993   -0.5326    0.0000 C   0  0  0  0  0  0  0  0  0  0  0  0
   -0.3823    0.6811    0.0000 C   0  0  0  0  0  0  0  0  0  0  0  0
    1.9259    1.4311    0.0000 C   0  0  0  0  0  0  0  0  0  0  0  0
    0.0358   -1.9591    0.0000 C   0  0  0  0  0  0  0  0  0  0  0  0
   -1.8823    0.6811    0.0000 C   0  0  0  0  0  0  0  0  0  0  0  0
    3.2249    2.1811    0.0000 C   0  0  0  0  0  0  0  0  0  0  0  0
    3.2249   -0.8189    0.0000 C   0  0  0  0  0  0  0  0  0  0  0  0
   -2.6323    1.9800    0.0000 C   0  0  0  0  0  0  0  0  0  0  0  0
   -2.6323   -0.6180    0.0000 C   0  0  0  0  0  0  0  0  0  0  0  0
   -1.4314   -2.2709    0.0000 C   0  0  0  0  0  0  0  0  0  0  0  0
    4.5240   -0.0689    0.0000 C   0  0  0  0  0  0  0  0  0  0  0  0
    0.5758   -4.5004    0.0000 C   0  0  0  0  0  0  0  0  0  0  0  0
   -4.1323    1.9800    0.0000 C   0  0  0  0  0  0  0  0  0  0  0  0
   -4.1323   -0.6180    0.0000 C   0  0  0  0  0  0  0  0  0  0  0  0
   -4.8823    0.6811    0.0000 C   0  0  0  0  0  0  0  0  0  0  0  0
   -1.8951   -3.6977    0.0000 C   0  0  0  0  0  0  0  0  0  0  0  0
    1.9259    4.4311    0.0000 C   0  0  0  0  0  0  0  0  0  0  0  0
    1.1160   -7.0417    0.0000 C   0  0  0  0  0  0  0  0  0  0  0  0
    2.1198   -8.1564    0.0000 C   0  0  0  0  0  0  0  0  0  0  0  0
    0.6268    3.6811    0.0000 C   0  0  0  0  0  0  0  0  0  0  0  0
    1.9259    5.9311    0.0000 C   0  0  0  0  0  0  0  0  0  0  0  0
    3.1235   -9.2711    0.0000 C   0  0  0  0  0  0  0  0  0  0  0  0
    3.2346   -7.1528    0.0000 C   0  0  0  0  0  0  0  0  0  0  0  0
    1.0051   -9.1602    0.0000 C   0  0  0  0  0  0  0  0  0  0  0  0
  1 18  1  0  0  0  0
  2 25  1  0  0  0  0
  3 16  1  0  0  0  0
  3 27  1  0  0  0  0
  4 32  1  0  0  0  0
  5 11  1  0  0  0  0
  5 13  1  0  0  0  0
  5 17  1  0  0  0  0
  6 12  1  0  0  0  0
  6 13  2  0  0  0  0
  7 14  1  0  0  0  0
  7 22  2  0  0  0  0
  8 16  2  0  0  0  0
  8 21  1  0  0  0  0
  9 22  1  0  0  0  0
  9 26  2  0  0  0  0
 10 22  1  0  0  0  0
 10 28  1  0  0  0  0
 11 12  2  0  0  0  0
 11 14  1  0  0  0  0
 12 15  1  0  0  0  0
 13 16  1  0  0  0  0
 14 20  2  0  0  0  0
 15 18  1  0  0  0  0
 15 19  2  0  0  0  0
 17 21  2  0  0  0  0
 18 23  2  0  0  0  0
 19 24  1  0  0  0  0
 20 26  1  0  0  0  0
 23 25  1  0  0  0  0
 24 25  2  0  0  0  0
 27 30  1  0  0  0  0
 27 31  1  0  0  0  0
 28 29  1  0  0  0  0
 29 32  1  0  0  0  0
 29 33  1  0  0  0  0
 29 34  1  0  0  0  0
M  END
> <Value>
5.899998417198648

> <Relation>
<

> <SourceURI>
mol:CHEMBL2000429

$$$$

Generated by Molecular Materials Informatics

 30 33  0  0  0  0  0  0  0  0999 V2000
    0.3605   -3.4447    0.0000 S   0  0  0  0  0  0  0  0  0  0  0  0
    0.9006    1.5237    0.0000 O   0  0  0  0  0  0  0  0  0  0  0  0
   -0.9536    7.2298    0.0000 O   0  0  0  0  0  0  0  0  0  0  0  0
    3.0861   -3.7313    0.0000 N   0  0  0  0  0  0  0  0  0  0  0  0
    4.3850   -1.4813    0.0000 N   0  0  0  0  0  0  0  0  0  0  0  0
   -1.5703    0.7207    0.0000 N   0  0  0  0  0  0  0  0  0  0  0  0
    3.0861    0.7687    0.0000 N   0  0  0  0  0  0  0  0  0  0  0  0
   -3.4245    6.4271    0.0000 N   0  0  0  0  0  0  0  0  0  0  0  0
   -2.8843    8.9684    0.0000 N   0  0  0  0  0  0  0  0  0  0  0  0
    1.7870   -1.4813    0.0000 C   0  0  0  0  0  0  0  0  0  0  0  0
    0.3605   -1.0178    0.0000 C   0  0  0  0  0  0  0  0  0  0  0  0
    1.7870   -2.9813    0.0000 C   0  0  0  0  0  0  0  0  0  0  0  0
    3.0861   -0.7313    0.0000 C   0  0  0  0  0  0  0  0  0  0  0  0
   -0.1032    0.4089    0.0000 C   0  0  0  0  0  0  0  0  0  0  0  0
   -0.5212   -2.2313    0.0000 C   0  0  0  0  0  0  0  0  0  0  0  0
    4.3850   -2.9813    0.0000 C   0  0  0  0  0  0  0  0  0  0  0  0
   -2.0339    2.1473    0.0000 C   0  0  0  0  0  0  0  0  0  0  0  0
   -3.5010    2.4591    0.0000 C   0  0  0  0  0  0  0  0  0  0  0  0
   -1.0301    3.2620    0.0000 C   0  0  0  0  0  0  0  0  0  0  0  0
   -2.9608    5.0006    0.0000 C   0  0  0  0  0  0  0  0  0  0  0  0
   -3.9646    3.8858    0.0000 C   0  0  0  0  0  0  0  0  0  0  0  0
   -1.4937    4.6886    0.0000 C   0  0  0  0  0  0  0  0  0  0  0  0
   -2.4208    7.5418    0.0000 C   0  0  0  0  0  0  0  0  0  0  0  0
   -4.3516    9.2802    0.0000 C   0  0  0  0  0  0  0  0  0  0  0  0
   -5.3552    8.1655    0.0000 C   0  0  0  0  0  0  0  0  0  0  0  0
   -4.8150   10.7068    0.0000 C   0  0  0  0  0  0  0  0  0  0  0  0
   -7.2859    9.9040    0.0000 C   0  0  0  0  0  0  0  0  0  0  0  0
   -6.8225    8.4775    0.0000 C   0  0  0  0  0  0  0  0  0  0  0  0
   -6.2823   11.0188    0.0000 C   0  0  0  0  0  0  0  0  0  0  0  0
   -8.7532   10.2159    0.0000 C   0  0  0  0  0  0  0  0  0  0  0  0
  1 12  1  0  0  0  0
  1 15  1  0  0  0  0
  2 14  2  0  0  0  0
  3 23  2  0  0  0  0
  4 12  2  0  0  0  0
  4 16  1  0  0  0  0
  5 13  1  0  0  0  0
  5 16  2  0  0  0  0
  6 14  1  0  0  0  0
  6 17  1  0  0  0  0
  7 13  1  0  0  0  0
  8 20  1  0  0  0  0
  8 23  1  0  0  0  0
  9 23  1  0  0  0  0
  9 24  1  0  0  0  0
 10 11  1  0  0  0  0
 10 12  1  0  0  0  0
 10 13  2  0  0  0  0
 11 14  1  0  0  0  0
 11 15  2  0  0  0  0
 17 18  2  0  0  0  0
 17 19  1  0  0  0  0
 18 21  1  0  0  0  0
 19 22  2  0  0  0  0
 20 21  2  0  0  0  0
 20 22  1  0  0  0  0
 24 25  2  0  0  0  0
 24 26  1  0  0  0  0
 25 28  1  0  0  0  0
 26 29  2  0  0  0  0
 27 28  2  0  0  0  0
 27 29  1  0  0  0  0
 27 30  1  0  0  0  0
M  END
> <Value>
5.899998417198648

> <Relation>
<

> <SourceURI>
mol:CHEMBL1972576

$$$$

Generated by Molecular Materials Informatics

 24 26  0  0  0  0  0  0  0  0999 V2000
    3.6047    0.2625    0.0000 O   0  0  0  0  0  0  0  0  0  0  0  0
    2.3056   -1.9875    0.0000 N   0  0  0  0  0  0  0  0  0  0  0  0
   -5.4883    4.0123    0.0000 N   0  0  0  0  0  0  0  0  0  0  0  0
    6.2028   -2.7375    0.0000 N   0  0  0  0  0  0  0  0  0  0  0  0
    1.0068    0.2625    0.0000 C   0  0  0  0  0  0  0  0  0  0  0  0
   -1.5913    1.7624    0.0000 C   0  0  0  0  0  0  0  0  0  0  0  0
    2.3056   -0.4875    0.0000 C   0  0  0  0  0  0  0  0  0  0  0  0
   -2.8902    2.5124    0.0000 C   0  0  0  0  0  0  0  0  0  0  0  0
    3.6047   -2.7375    0.0000 C   0  0  0  0  0  0  0  0  0  0  0  0
   -0.2923   -0.4875    0.0000 C   0  0  0  0  0  0  0  0  0  0  0  0
    1.0068    1.7624    0.0000 C   0  0  0  0  0  0  0  0  0  0  0  0
   -1.5913    0.2625    0.0000 C   0  0  0  0  0  0  0  0  0  0  0  0
   -0.2923    2.5124    0.0000 C   0  0  0  0  0  0  0  0  0  0  0  0
    3.6047   -4.2374    0.0000 C   0  0  0  0  0  0  0  0  0  0  0  0
   -2.8902    4.0123    0.0000 C   0  0  0  0  0  0  0  0  0  0  0  0
   -4.1892    1.7624    0.0000 C   0  0  0  0  0  0  0  0  0  0  0  0
    4.9037   -4.9874    0.0000 C   0  0  0  0  0  0  0  0  0  0  0  0
    2.3056   -4.9874    0.0000 C   0  0  0  0  0  0  0  0  0  0  0  0
    4.9037   -1.9875    0.0000 C   0  0  0  0  0  0  0  0  0  0  0  0
   -4.1892    4.7623    0.0000 C   0  0  0  0  0  0  0  0  0  0  0  0
   -5.4883    2.5124    0.0000 C   0  0  0  0  0  0  0  0  0  0  0  0
    4.9037   -6.4873    0.0000 C   0  0  0  0  0  0  0  0  0  0  0  0
    2.3056   -6.4873    0.0000 C   0  0  0  0  0  0  0  0  0  0  0  0
    3.6047   -7.2373    0.0000 C   0  0  0  0  0  0  0  0  0  0  0  0
  1  7  2  0  0  0  0
  2  7  1  0  0  0  0
  2  9  1  0  0  0  0
  3 20  2  0  0  0  0
  3 21  1  0  0  0  0
  4 19  1  0  0  0  0
  5  7  1  0  0  0  0
  5 10  2  0  0  0  0
  5 11  1  0  0  0  0
  6  8  1  0  0  0  0
  6 12  2  0  0  0  0
  6 13  1  0  0  0  0
  8 15  2  0  0  0  0
  8 16  1  0  0  0  0
  9 14  1  0  0  0  0
  9 19  1  0  0  0  0
 10 12  1  0  0  0  0
 11 13  2  0  0  0  0
 14 17  2  0  0  0  0
 14 18  1  0  0  0  0
 15 20  1  0  0  0  0
 16 21  2  0  0  0  0
 17 22  1  0  0  0  0
 18 23  2  0  0  0  0
 22 24  2  0  0  0  0
 23 24  1  0  0  0  0
M  END
> <Value>
5.499999678657065

> <Relation>
<

> <SourceURI>
mol:CHEMBL1990254

$$$$

Generated by Molecular Materials Informatics

 23 25  0  0  0  0  0  0  0  0999 V2000
    7.3308   -3.0681    0.0000 S   0  0  0  0  0  0  0  0  0  0  0  0
    8.0807   -4.3671    0.0000 O   0  0  0  0  0  0  0  0  0  0  0  0
    6.5808   -1.7692    0.0000 O   0  0  0  0  0  0  0  0  0  0  0  0
   -3.1887    1.1453    0.0000 N   0  0  0  0  0  0  0  0  0  0  0  0
   -4.0703   -0.0681    0.0000 N   0  0  0  0  0  0  0  0  0  0  0  0
    6.0317   -3.8180    0.0000 N   0  0  0  0  0  0  0  0  0  0  0  0
   -3.6522   -2.7082    0.0000 N   0  0  0  0  0  0  0  0  0  0  0  0
   -1.7622   -0.8181    0.0000 C   0  0  0  0  0  0  0  0  0  0  0  0
   -1.7622    0.6818    0.0000 C   0  0  0  0  0  0  0  0  0  0  0  0
    0.8359   -0.8181    0.0000 C   0  0  0  0  0  0  0  0  0  0  0  0
   -3.1887   -1.2817    0.0000 C   0  0  0  0  0  0  0  0  0  0  0  0
   -0.4632   -1.5681    0.0000 C   0  0  0  0  0  0  0  0  0  0  0  0
    2.1347   -1.5681    0.0000 C   0  0  0  0  0  0  0  0  0  0  0  0
   -0.4632    1.4318    0.0000 C   0  0  0  0  0  0  0  0  0  0  0  0
    0.8359    0.6818    0.0000 C   0  0  0  0  0  0  0  0  0  0  0  0
    4.7328   -3.0681    0.0000 C   0  0  0  0  0  0  0  0  0  0  0  0
    3.4338   -0.8181    0.0000 C   0  0  0  0  0  0  0  0  0  0  0  0
    2.1347   -3.0681    0.0000 C   0  0  0  0  0  0  0  0  0  0  0  0
    4.7328   -1.5681    0.0000 C   0  0  0  0  0  0  0  0  0  0  0  0
    3.4338   -3.8180    0.0000 C   0  0  0  0  0  0  0  0  0  0  0  0
    8.6298   -2.3181    0.0000 C   0  0  0  0  0  0  0  0  0  0  0  0
    9.9289   -3.0681    0.0000 C   0  0  0  0  0  0  0  0  0  0  0  0
   11.2277   -2.3181    0.0000 C   0  0  0  0  0  0  0  0  0  0  0  0
  1  2  2  0  0  0  0
  1  3  2  0  0  0  0
  1  6  1  0  0  0  0
  1 21  1  0  0  0  0
  4  5  1  0  0  0  0
  4  9  1  0  0  0  0
  5 11  2  0  0  0  0
  6 16  1  0  0  0  0
  7 11  1  0  0  0  0
  8  9  1  0  0  0  0
  8 11  1  0  0  0  0
  8 12  2  0  0  0  0
  9 14  2  0  0  0  0
 10 12  1  0  0  0  0
 10 13  1  0  0  0  0
 10 15  2  0  0  0  0
 13 17  2  0  0  0  0
 13 18  1  0  0  0  0
 14 15  1  0  0  0  0
 16 19  2  0  0  0  0
 16 20  1  0  0  0  0
 17 19  1  0  0  0  0
 18 20  2  0  0  0  0
 21 22  1  0  0  0  0
 22 23  1  0  0  0  0
M  END
> <Value>
6.599997654072044

> <Relation>
=

> <SourceURI>
mol:CHEMBL1992342

$$$$

Generated by Molecular Materials Informatics

 29 31  0  0  0  0  0  0  0  0999 V2000
   -9.9109    4.6875    0.0000 Cl  0  0  0  0  0  0  0  0  0  0  0  0
   -6.0138   -0.5625    0.0000 S   0  0  0  0  0  0  0  0  0  0  0  0
   -3.6167   -4.3125    0.0000 O   0  0  0  0  0  0  0  0  0  0  0  0
   -0.8176   -2.0625    0.0000 O   0  0  0  0  0  0  0  0  0  0  0  0
   -3.4158   -2.0625    0.0000 N   0  0  0  0  0  0  0  0  0  0  0  0
   -3.4158   -0.5625    0.0000 N   0  0  0  0  0  0  0  0  0  0  0  0
   -4.7147    1.6875    0.0000 N   0  0  0  0  0  0  0  0  0  0  0  0
   -2.1167   -4.3125    0.0000 C   0  0  0  0  0  0  0  0  0  0  0  0
   -2.1167   -5.8125    0.0000 C   0  0  0  0  0  0  0  0  0  0  0  0
   -0.6167   -4.3125    0.0000 C   0  0  0  0  0  0  0  0  0  0  0  0
   -2.1167   -2.8125    0.0000 C   0  0  0  0  0  0  0  0  0  0  0  0
   -0.8176   -6.5625    0.0000 C   0  0  0  0  0  0  0  0  0  0  0  0
    0.1333   -3.0134    0.0000 C   0  0  0  0  0  0  0  0  0  0  0  0
   -3.4158   -6.5625    0.0000 C   0  0  0  0  0  0  0  0  0  0  0  0
    0.1333   -5.6116    0.0000 C   0  0  0  0  0  0  0  0  0  0  0  0
   -0.8176   -8.0625    0.0000 C   0  0  0  0  0  0  0  0  0  0  0  0
    1.6333   -3.0134    0.0000 C   0  0  0  0  0  0  0  0  0  0  0  0
   -3.4158   -8.0625    0.0000 C   0  0  0  0  0  0  0  0  0  0  0  0
    1.6333   -5.6116    0.0000 C   0  0  0  0  0  0  0  0  0  0  0  0
   -6.0138    2.4375    0.0000 C   0  0  0  0  0  0  0  0  0  0  0  0
   -4.7147    0.1875    0.0000 C   0  0  0  0  0  0  0  0  0  0  0  0
   -7.3129    1.6875    0.0000 C   0  0  0  0  0  0  0  0  0  0  0  0
   -2.1167   -8.8125    0.0000 C   0  0  0  0  0  0  0  0  0  0  0  0
    2.3833   -4.3125    0.0000 C   0  0  0  0  0  0  0  0  0  0  0  0
   -6.0138    3.9375    0.0000 C   0  0  0  0  0  0  0  0  0  0  0  0
   -8.6118    2.4375    0.0000 C   0  0  0  0  0  0  0  0  0  0  0  0
   -8.6118    3.9375    0.0000 C   0  0  0  0  0  0  0  0  0  0  0  0
   -7.3129    4.6875    0.0000 C   0  0  0  0  0  0  0  0  0  0  0  0
   -7.3129    0.1875    0.0000 C   0  0  0  0  0  0  0  0  0  0  0  0
  1 27  1  0  0  0  0
  2 21  2  0  0  0  0
  3  8  1  0  0  0  0
  4 11  2  0  0  0  0
  5  6  1  0  0  0  0
  5 11  1  0  0  0  0
  6 21  1  0  0  0  0
  7 20  1  0  0  0  0
  7 21  1  0  0  0  0
  8  9  1  0  0  0  0
  8 10  1  0  0  0  0
  8 11  1  0  0  0  0
  9 12  2  0  0  0  0
  9 14  1  0  0  0  0
 10 13  2  0  0  0  0
 10 15  1  0  0  0  0
 12 16  1  0  0  0  0
 13 17  1  0  0  0  0
 14 18  2  0  0  0  0
 15 19  2  0  0  0  0
 16 23  2  0  0  0  0
 17 24  2  0  0  0  0
 18 23  1  0  0  0  0
 19 24  1  0  0  0  0
 20 22  1  0  0  0  0
 20 25  2  0  0  0  0
 22 26  2  0  0  0  0
 22 29  1  0  0  0  0
 25 28  1  0  0  0  0
 26 27  1  0  0  0  0
 27 28  2  0  0  0  0
M  END
> <Value>
6.0

> <Relation>
=

> <SourceURI>
mol:CHEMBL1988173

$$$$

Generated by Molecular Materials Informatics

 18 19  0  0  0  0  0  0  0  0999 V2000
   -0.4081    1.7832    0.0000 Br  0  0  0  0  0  0  0  0  0  0  0  0
   -2.0465    1.6829    0.0000 S   0  0  0  0  0  0  0  0  0  0  0  0
   -1.6283   -0.9573    0.0000 N   0  0  0  0  0  0  0  0  0  0  0  0
    0.7451   -2.0141    0.0000 N   0  0  0  0  0  0  0  0  0  0  0  0
    2.8471   -0.4870    0.0000 N   0  0  0  0  0  0  0  0  0  0  0  0
   -4.0100    0.2561    0.0000 N   0  0  0  0  0  0  0  0  0  0  0  0
    3.1186   -3.0708    0.0000 N   0  0  0  0  0  0  0  0  0  0  0  0
   -0.1365   -0.8006    0.0000 C   0  0  0  0  0  0  0  0  0  0  0  0
    0.4737    0.5698    0.0000 C   0  0  0  0  0  0  0  0  0  0  0  0
   -2.5100    0.2561    0.0000 C   0  0  0  0  0  0  0  0  0  0  0  0
    2.2369   -1.8573    0.0000 C   0  0  0  0  0  0  0  0  0  0  0  0
    1.9653    0.7265    0.0000 C   0  0  0  0  0  0  0  0  0  0  0  0
   -3.2600    2.5645    0.0000 C   0  0  0  0  0  0  0  0  0  0  0  0
   -4.4734    1.6829    0.0000 C   0  0  0  0  0  0  0  0  0  0  0  0
    2.5086   -4.4411    0.0000 C   0  0  0  0  0  0  0  0  0  0  0  0
   -3.2600    4.0645    0.0000 C   0  0  0  0  0  0  0  0  0  0  0  0
    3.3902   -5.6546    0.0000 C   0  0  0  0  0  0  0  0  0  0  0  0
    1.0168   -4.5979    0.0000 C   0  0  0  0  0  0  0  0  0  0  0  0
  1  9  1  0  0  0  0
  2 10  1  0  0  0  0
  2 13  1  0  0  0  0
  3  8  1  0  0  0  0
  3 10  1  0  0  0  0
  4  8  2  0  0  0  0
  4 11  1  0  0  0  0
  5 11  2  0  0  0  0
  5 12  1  0  0  0  0
  6 10  2  0  0  0  0
  6 14  1  0  0  0  0
  7 11  1  0  0  0  0
  7 15  1  0  0  0  0
  8  9  1  0  0  0  0
  9 12  2  0  0  0  0
 13 14  2  0  0  0  0
 13 16  1  0  0  0  0
 15 17  1  0  0  0  0
 15 18  1  0  0  0  0
M  END
> <Value>
6.399996913372259

> <Relation>
=

> <SourceURI>
mol:CHEMBL1973013

$$$$

Generated by Molecular Materials Informatics

 29 33  0  0  0  0  0  0  0  0999 V2000
    7.5445    1.3675    0.0000 S   0  0  0  0  0  0  0  0  0  0  0  0
   -0.5019   -4.2447    0.0000 F   0  0  0  0  0  0  0  0  0  0  0  0
    5.1705    1.8721    0.0000 N   0  0  0  0  0  0  0  0  0  0  0  0
    5.4241   -0.5418    0.0000 N   0  0  0  0  0  0  0  0  0  0  0  0
   -1.5235    1.5484    0.0000 N   0  0  0  0  0  0  0  0  0  0  0  0
   -1.5235    3.9755    0.0000 N   0  0  0  0  0  0  0  0  0  0  0  0
   -3.9052    2.7619    0.0000 N   0  0  0  0  0  0  0  0  0  0  0  0
    3.8001    1.2619    0.0000 C   0  0  0  0  0  0  0  0  0  0  0  0
    3.9570   -0.2298    0.0000 C   0  0  0  0  0  0  0  0  0  0  0  0
    2.5012    2.0119    0.0000 C   0  0  0  0  0  0  0  0  0  0  0  0
    6.1741    0.7573    0.0000 C   0  0  0  0  0  0  0  0  0  0  0  0
   -0.0970    2.0119    0.0000 C   0  0  0  0  0  0  0  0  0  0  0  0
   -0.0970    3.5119    0.0000 C   0  0  0  0  0  0  0  0  0  0  0  0
    1.2021    1.2619    0.0000 C   0  0  0  0  0  0  0  0  0  0  0  0
    2.8423   -1.2336    0.0000 C   0  0  0  0  0  0  0  0  0  0  0  0
    2.5012    3.5119    0.0000 C   0  0  0  0  0  0  0  0  0  0  0  0
    5.9205    3.1711    0.0000 C   0  0  0  0  0  0  0  0  0  0  0  0
   -2.4052    2.7619    0.0000 C   0  0  0  0  0  0  0  0  0  0  0  0
    1.2021    4.2619    0.0000 C   0  0  0  0  0  0  0  0  0  0  0  0
    7.3877    2.8591    0.0000 C   0  0  0  0  0  0  0  0  0  0  0  0
    3.1541   -2.7007    0.0000 C   0  0  0  0  0  0  0  0  0  0  0  0
    1.4156   -0.7699    0.0000 C   0  0  0  0  0  0  0  0  0  0  0  0
   -1.9870    0.1219    0.0000 C   0  0  0  0  0  0  0  0  0  0  0  0
    2.0394   -3.7045    0.0000 C   0  0  0  0  0  0  0  0  0  0  0  0
    0.3010   -1.7738    0.0000 C   0  0  0  0  0  0  0  0  0  0  0  0
    0.6128   -3.2409    0.0000 C   0  0  0  0  0  0  0  0  0  0  0  0
   -3.4543   -0.1899    0.0000 C   0  0  0  0  0  0  0  0  0  0  0  0
   -3.9179   -1.6167    0.0000 C   0  0  0  0  0  0  0  0  0  0  0  0
   -4.4581    0.9246    0.0000 C   0  0  0  0  0  0  0  0  0  0  0  0
  1 11  1  0  0  0  0
  1 20  1  0  0  0  0
  2 26  1  0  0  0  0
  3  8  1  0  0  0  0
  3 11  1  0  0  0  0
  3 17  1  0  0  0  0
  4  9  1  0  0  0  0
  4 11  2  0  0  0  0
  5 12  1  0  0  0  0
  5 18  1  0  0  0  0
  5 23  1  0  0  0  0
  6 13  1  0  0  0  0
  6 18  2  0  0  0  0
  7 18  1  0  0  0  0
  8  9  2  0  0  0  0
  8 10  1  0  0  0  0
  9 15  1  0  0  0  0
 10 14  1  0  0  0  0
 10 16  2  0  0  0  0
 12 13  1  0  0  0  0
 12 14  2  0  0  0  0
 13 19  2  0  0  0  0
 15 21  2  0  0  0  0
 15 22  1  0  0  0  0
 16 19  1  0  0  0  0
 17 20  2  0  0  0  0
 21 24  1  0  0  0  0
 22 25  2  0  0  0  0
 23 27  1  0  0  0  0
 24 26  2  0  0  0  0
 25 26  1  0  0  0  0
 27 28  1  0  0  0  0
 27 29  1  0  0  0  0
M  END
> <Value>
5.899998417198648

> <Relation>
<

> <SourceURI>
mol:CHEMBL1965423

$$$$

Generated by Molecular Materials Informatics

 35 38  0  0  0  0  0  0  0  0999 V2000
    0.7477    3.6107    0.0000 S   0  0  0  0  0  0  0  0  0  0  0  0
   -3.5774   -3.7199    0.0000 O   0  0  0  0  0  0  0  0  0  0  0  0
    4.7724    1.6470    0.0000 N   0  0  0  0  0  0  0  0  0  0  0  0
    3.4733   -0.6030    0.0000 N   0  0  0  0  0  0  0  0  0  0  0  0
   -1.1065   -4.5228    0.0000 N   0  0  0  0  0  0  0  0  0  0  0  0
    4.9733    8.3970    0.0000 N   0  0  0  0  0  0  0  0  0  0  0  0
   -3.0372   -6.2611    0.0000 N   0  0  0  0  0  0  0  0  0  0  0  0
    2.1743    1.6470    0.0000 C   0  0  0  0  0  0  0  0  0  0  0  0
    2.1743    3.1470    0.0000 C   0  0  0  0  0  0  0  0  0  0  0  0
    0.7477    1.1836    0.0000 C   0  0  0  0  0  0  0  0  0  0  0  0
    3.4733    3.8970    0.0000 C   0  0  0  0  0  0  0  0  0  0  0  0
    3.4733    0.8970    0.0000 C   0  0  0  0  0  0  0  0  0  0  0  0
    0.2843   -0.2430    0.0000 C   0  0  0  0  0  0  0  0  0  0  0  0
   -0.1339    2.3970    0.0000 C   0  0  0  0  0  0  0  0  0  0  0  0
    4.7724    3.1470    0.0000 C   0  0  0  0  0  0  0  0  0  0  0  0
    3.4733    5.3970    0.0000 C   0  0  0  0  0  0  0  0  0  0  0  0
    1.2879   -1.3577    0.0000 C   0  0  0  0  0  0  0  0  0  0  0  0
   -1.1830   -0.5548    0.0000 C   0  0  0  0  0  0  0  0  0  0  0  0
   -0.6428   -3.0962    0.0000 C   0  0  0  0  0  0  0  0  0  0  0  0
    0.8242   -2.7842    0.0000 C   0  0  0  0  0  0  0  0  0  0  0  0
   -1.6467   -1.9815    0.0000 C   0  0  0  0  0  0  0  0  0  0  0  0
    3.4733    6.8970    0.0000 C   0  0  0  0  0  0  0  0  0  0  0  0
    3.4733    8.3970    0.0000 C   0  0  0  0  0  0  0  0  0  0  0  0
   -2.5736   -4.8346    0.0000 C   0  0  0  0  0  0  0  0  0  0  0  0
    3.4733    9.8970    0.0000 C   0  0  0  0  0  0  0  0  0  0  0  0
    1.9733    8.3970    0.0000 C   0  0  0  0  0  0  0  0  0  0  0  0
   -4.5043   -6.5731    0.0000 C   0  0  0  0  0  0  0  0  0  0  0  0
   -4.9679   -7.9997    0.0000 C   0  0  0  0  0  0  0  0  0  0  0  0
   -5.5081   -5.4584    0.0000 C   0  0  0  0  0  0  0  0  0  0  0  0
   -6.4352   -8.3115    0.0000 C   0  0  0  0  0  0  0  0  0  0  0  0
    4.7724   10.6470    0.0000 C   0  0  0  0  0  0  0  0  0  0  0  0
    1.2233    9.6961    0.0000 C   0  0  0  0  0  0  0  0  0  0  0  0
   -6.9754   -5.7702    0.0000 C   0  0  0  0  0  0  0  0  0  0  0  0
   -7.4388   -7.1968    0.0000 C   0  0  0  0  0  0  0  0  0  0  0  0
   -6.8987   -9.7380    0.0000 C   0  0  0  0  0  0  0  0  0  0  0  0
  1  9  1  0  0  0  0
  1 14  1  0  0  0  0
  2 24  2  0  0  0  0
  3 12  2  0  0  0  0
  3 15  1  0  0  0  0
  4 12  1  0  0  0  0
  5 19  1  0  0  0  0
  5 24  1  0  0  0  0
  6 23  1  0  0  0  0
  7 24  1  0  0  0  0
  7 27  1  0  0  0  0
  8  9  2  0  0  0  0
  8 10  1  0  0  0  0
  8 12  1  0  0  0  0
  9 11  1  0  0  0  0
 10 13  1  0  0  0  0
 10 14  2  0  0  0  0
 11 15  2  0  0  0  0
 11 16  1  0  0  0  0
 13 17  2  0  0  0  0
 13 18  1  0  0  0  0
 16 22  3  0  0  0  0
 17 20  1  0  0  0  0
 18 21  2  0  0  0  0
 19 20  2  0  0  0  0
 19 21  1  0  0  0  0
 22 23  1  0  0  0  0
 23 25  1  0  0  0  0
 23 26  1  0  0  0  0
 25 31  1  0  0  0  0
 26 32  1  0  0  0  0
 27 28  1  0  0  0  0
 27 29  2  0  0  0  0
 28 30  2  0  0  0  0
 29 33  1  0  0  0  0
 30 34  1  0  0  0  0
 30 35  1  0  0  0  0
 33 34  2  0  0  0  0
M  END
> <Value>
5.899998417198648

> <Relation>
<

> <SourceURI>
mol:CHEMBL1983025

$$$$

Generated by Molecular Materials Informatics

 30 33  0  0  0  0  0  0  0  0999 V2000
    7.6147    2.8765    0.0000 O   0  0  0  0  0  0  0  0  0  0  0  0
    5.0167    4.3765    0.0000 O   0  0  0  0  0  0  0  0  0  0  0  0
    7.6147   -0.1235    0.0000 O   0  0  0  0  0  0  0  0  0  0  0  0
   -4.7593   -5.5433    0.0000 O   0  0  0  0  0  0  0  0  0  0  0  0
   -2.9051    0.1631    0.0000 N   0  0  0  0  0  0  0  0  0  0  0  0
   -0.1795   -0.1235    0.0000 N   0  0  0  0  0  0  0  0  0  0  0  0
    2.4185   -0.1235    0.0000 N   0  0  0  0  0  0  0  0  0  0  0  0
    1.1194    2.1265    0.0000 N   0  0  0  0  0  0  0  0  0  0  0  0
   -1.4786    0.6265    0.0000 C   0  0  0  0  0  0  0  0  0  0  0  0
   -1.4786    2.1265    0.0000 C   0  0  0  0  0  0  0  0  0  0  0  0
    1.1194    0.6265    0.0000 C   0  0  0  0  0  0  0  0  0  0  0  0
   -3.3688   -1.2637    0.0000 C   0  0  0  0  0  0  0  0  0  0  0  0
   -3.7868    1.3765    0.0000 C   0  0  0  0  0  0  0  0  0  0  0  0
   -2.9051    2.5900    0.0000 C   0  0  0  0  0  0  0  0  0  0  0  0
    3.7176    0.6265    0.0000 C   0  0  0  0  0  0  0  0  0  0  0  0
   -0.1795    2.8765    0.0000 C   0  0  0  0  0  0  0  0  0  0  0  0
    6.3156    2.1265    0.0000 C   0  0  0  0  0  0  0  0  0  0  0  0
    5.0167    2.8765    0.0000 C   0  0  0  0  0  0  0  0  0  0  0  0
    6.3156    0.6265    0.0000 C   0  0  0  0  0  0  0  0  0  0  0  0
    3.7176    2.1265    0.0000 C   0  0  0  0  0  0  0  0  0  0  0  0
    5.0167   -0.1235    0.0000 C   0  0  0  0  0  0  0  0  0  0  0  0
   -2.3649   -2.3784    0.0000 C   0  0  0  0  0  0  0  0  0  0  0  0
   -4.8358   -1.5755    0.0000 C   0  0  0  0  0  0  0  0  0  0  0  0
   -4.2957   -4.1167    0.0000 C   0  0  0  0  0  0  0  0  0  0  0  0
   -2.8286   -3.8049    0.0000 C   0  0  0  0  0  0  0  0  0  0  0  0
   -5.2995   -3.0020    0.0000 C   0  0  0  0  0  0  0  0  0  0  0  0
    8.9138    2.1265    0.0000 C   0  0  0  0  0  0  0  0  0  0  0  0
    3.7176    5.1265    0.0000 C   0  0  0  0  0  0  0  0  0  0  0  0
    7.6147   -1.6235    0.0000 C   0  0  0  0  0  0  0  0  0  0  0  0
   -3.7555   -6.6580    0.0000 C   0  0  0  0  0  0  0  0  0  0  0  0
  1 17  1  0  0  0  0
  1 27  1  0  0  0  0
  2 18  1  0  0  0  0
  2 28  1  0  0  0  0
  3 19  1  0  0  0  0
  3 29  1  0  0  0  0
  4 24  1  0  0  0  0
  4 30  1  0  0  0  0
  5  9  1  0  0  0  0
  5 12  1  0  0  0  0
  5 13  1  0  0  0  0
  6  9  2  0  0  0  0
  6 11  1  0  0  0  0
  7 11  1  0  0  0  0
  7 15  1  0  0  0  0
  8 11  2  0  0  0  0
  8 16  1  0  0  0  0
  9 10  1  0  0  0  0
 10 14  1  0  0  0  0
 10 16  2  0  0  0  0
 12 22  2  0  0  0  0
 12 23  1  0  0  0  0
 13 14  2  0  0  0  0
 15 20  2  0  0  0  0
 15 21  1  0  0  0  0
 17 18  2  0  0  0  0
 17 19  1  0  0  0  0
 18 20  1  0  0  0  0
 19 21  2  0  0  0  0
 22 25  1  0  0  0  0
 23 26  2  0  0  0  0
 24 25  2  0  0  0  0
 24 26  1  0  0  0  0
M  END
> <Value>
5.700000503883016

> <Relation>
=

> <SourceURI>
mol:CHEMBL1975927

$$$$

Generated by Molecular Materials Informatics

 29 32  0  0  0  0  0  0  0  0999 V2000
   -1.0321   -3.1862    0.0000 O   0  0  0  0  0  0  0  0  0  0  0  0
    0.3585    3.5206    0.0000 N   0  0  0  0  0  0  0  0  0  0  0  0
   -3.5030   -2.3834    0.0000 N   0  0  0  0  0  0  0  0  0  0  0  0
   -2.5761    0.4699    0.0000 N   0  0  0  0  0  0  0  0  0  0  0  0
   -5.8973   -5.5483    0.0000 N   0  0  0  0  0  0  0  0  0  0  0  0
    0.1249  -12.2367    0.0000 N   0  0  0  0  0  0  0  0  0  0  0  0
    1.7850    1.5571    0.0000 C   0  0  0  0  0  0  0  0  0  0  0  0
    0.3585    1.0935    0.0000 C   0  0  0  0  0  0  0  0  0  0  0  0
    1.7850    3.0571    0.0000 C   0  0  0  0  0  0  0  0  0  0  0  0
   -0.5231    2.3071    0.0000 C   0  0  0  0  0  0  0  0  0  0  0  0
   -0.1050   -0.3331    0.0000 C   0  0  0  0  0  0  0  0  0  0  0  0
   -1.5722   -0.6449    0.0000 C   0  0  0  0  0  0  0  0  0  0  0  0
    3.0841    0.8071    0.0000 C   0  0  0  0  0  0  0  0  0  0  0  0
    3.0841    3.8071    0.0000 C   0  0  0  0  0  0  0  0  0  0  0  0
   -2.0359   -2.0716    0.0000 C   0  0  0  0  0  0  0  0  0  0  0  0
   -3.9666   -3.8100    0.0000 C   0  0  0  0  0  0  0  0  0  0  0  0
    4.3832    1.5571    0.0000 C   0  0  0  0  0  0  0  0  0  0  0  0
    4.3832    3.0571    0.0000 C   0  0  0  0  0  0  0  0  0  0  0  0
   -3.4264   -6.3512    0.0000 C   0  0  0  0  0  0  0  0  0  0  0  0
   -2.9628   -4.9247    0.0000 C   0  0  0  0  0  0  0  0  0  0  0  0
   -5.4337   -4.1218    0.0000 C   0  0  0  0  0  0  0  0  0  0  0  0
   -4.8935   -6.6631    0.0000 C   0  0  0  0  0  0  0  0  0  0  0  0
   -2.4226   -7.4660    0.0000 C   0  0  0  0  0  0  0  0  0  0  0  0
   -2.8862   -8.8925    0.0000 C   0  0  0  0  0  0  0  0  0  0  0  0
   -1.8824  -10.0073    0.0000 C   0  0  0  0  0  0  0  0  0  0  0  0
   -2.3461  -11.4338    0.0000 C   0  0  0  0  0  0  0  0  0  0  0  0
   -0.4153   -9.6954    0.0000 C   0  0  0  0  0  0  0  0  0  0  0  0
   -1.3424  -12.5485    0.0000 C   0  0  0  0  0  0  0  0  0  0  0  0
    0.5885  -10.8102    0.0000 C   0  0  0  0  0  0  0  0  0  0  0  0
  1 15  2  0  0  0  0
  2  9  1  0  0  0  0
  2 10  1  0  0  0  0
  3 15  1  0  0  0  0
  3 16  1  0  0  0  0
  4 12  1  0  0  0  0
  5 21  1  0  0  0  0
  5 22  2  0  0  0  0
  6 28  2  0  0  0  0
  6 29  1  0  0  0  0
  7  8  1  0  0  0  0
  7  9  1  0  0  0  0
  7 13  2  0  0  0  0
  8 10  2  0  0  0  0
  8 11  1  0  0  0  0
  9 14  2  0  0  0  0
 11 12  1  0  0  0  0
 12 15  1  0  0  0  0
 13 17  1  0  0  0  0
 14 18  1  0  0  0  0
 16 20  1  0  0  0  0
 16 21  2  0  0  0  0
 17 18  2  0  0  0  0
 19 20  2  0  0  0  0
 19 22  1  0  0  0  0
 23 19  1  0  0  0  0
 23 24  2  0  0  0  0
 24 25  1  0  0  0  0
 25 26  2  0  0  0  0
 25 27  1  0  0  0  0
 26 28  1  0  0  0  0
 27 29  2  0  0  0  0
M  END
> <Value>
5.800000874803203

> <Relation>
=

> <SourceURI>
mol:CHEMBL1983945

$$$$

Generated by Molecular Materials Informatics

 22 24  0  0  0  0  0  0  0  0999 V2000
    2.8255    1.1812    0.0000 O   0  0  0  0  0  0  0  0  0  0  0  0
    5.4236    1.1812    0.0000 N   0  0  0  0  0  0  0  0  0  0  0  0
    4.1245   -8.5685    0.0000 N   0  0  0  0  0  0  0  0  0  0  0  0
    4.1245   -4.0687    0.0000 C   0  0  0  0  0  0  0  0  0  0  0  0
    4.1245   -1.0688    0.0000 C   0  0  0  0  0  0  0  0  0  0  0  0
    4.1245   -5.5686    0.0000 C   0  0  0  0  0  0  0  0  0  0  0  0
    4.1245    0.4312    0.0000 C   0  0  0  0  0  0  0  0  0  0  0  0
    2.8255   -3.3187    0.0000 C   0  0  0  0  0  0  0  0  0  0  0  0
    5.4236   -3.3187    0.0000 C   0  0  0  0  0  0  0  0  0  0  0  0
    2.8255   -1.8187    0.0000 C   0  0  0  0  0  0  0  0  0  0  0  0
    5.4236   -1.8187    0.0000 C   0  0  0  0  0  0  0  0  0  0  0  0
    2.8255   -6.3186    0.0000 C   0  0  0  0  0  0  0  0  0  0  0  0
    5.4236   -6.3186    0.0000 C   0  0  0  0  0  0  0  0  0  0  0  0
    6.7224    3.4311    0.0000 C   0  0  0  0  0  0  0  0  0  0  0  0
    5.4236    2.6811    0.0000 C   0  0  0  0  0  0  0  0  0  0  0  0
    2.8255   -7.8186    0.0000 C   0  0  0  0  0  0  0  0  0  0  0  0
    5.4236   -7.8186    0.0000 C   0  0  0  0  0  0  0  0  0  0  0  0
    6.7224    4.9311    0.0000 C   0  0  0  0  0  0  0  0  0  0  0  0
    8.0215    2.6811    0.0000 C   0  0  0  0  0  0  0  0  0  0  0  0
    8.0215    5.6810    0.0000 C   0  0  0  0  0  0  0  0  0  0  0  0
    9.3205    3.4311    0.0000 C   0  0  0  0  0  0  0  0  0  0  0  0
    9.3205    4.9311    0.0000 C   0  0  0  0  0  0  0  0  0  0  0  0
  1  7  2  0  0  0  0
  2  7  1  0  0  0  0
  2 15  1  0  0  0  0
  3 16  2  0  0  0  0
  3 17  1  0  0  0  0
  4  6  1  0  0  0  0
  4  8  2  0  0  0  0
  4  9  1  0  0  0  0
  5  7  1  0  0  0  0
  5 10  2  0  0  0  0
  5 11  1  0  0  0  0
  6 12  2  0  0  0  0
  6 13  1  0  0  0  0
  8 10  1  0  0  0  0
  9 11  2  0  0  0  0
 12 16  1  0  0  0  0
 13 17  2  0  0  0  0
 14 15  1  0  0  0  0
 14 18  2  0  0  0  0
 14 19  1  0  0  0  0
 18 20  1  0  0  0  0
 19 21  2  0  0  0  0
 20 22  2  0  0  0  0
 21 22  1  0  0  0  0
M  END
> <Value>
5.899998417198648

> <Relation>
<

> <SourceURI>
mol:CHEMBL1977135

$$$$

Generated by Molecular Materials Informatics

 26 28  0  0  0  0  0  0  0  0999 V2000
    0.3532    4.0412    0.0000 S   0  0  0  0  0  0  0  0  0  0  0  0
   -0.8182   -3.9223    0.0000 F   0  0  0  0  0  0  0  0  0  0  0  0
    1.2309   -4.4712    0.0000 F   0  0  0  0  0  0  0  0  0  0  0  0
   -0.2691   -1.8732    0.0000 F   0  0  0  0  0  0  0  0  0  0  0  0
    6.9759   -3.9223    0.0000 F   0  0  0  0  0  0  0  0  0  0  0  0
    4.9270   -4.4712    0.0000 F   0  0  0  0  0  0  0  0  0  0  0  0
    6.4270   -1.8732    0.0000 F   0  0  0  0  0  0  0  0  0  0  0  0
   -2.7784    1.5287    0.0000 O   0  0  0  0  0  0  0  0  0  0  0  0
    4.3779    3.5776    0.0000 N   0  0  0  0  0  0  0  0  0  0  0  0
   -2.7784    4.1267    0.0000 N   0  0  0  0  0  0  0  0  0  0  0  0
    3.0788    1.3276    0.0000 C   0  0  0  0  0  0  0  0  0  0  0  0
    1.7798    2.0776    0.0000 C   0  0  0  0  0  0  0  0  0  0  0  0
    3.0788   -0.1723    0.0000 C   0  0  0  0  0  0  0  0  0  0  0  0
    1.7798    3.5776    0.0000 C   0  0  0  0  0  0  0  0  0  0  0  0
    1.7798   -2.4223    0.0000 C   0  0  0  0  0  0  0  0  0  0  0  0
    4.3779   -2.4223    0.0000 C   0  0  0  0  0  0  0  0  0  0  0  0
    4.3779   -0.9223    0.0000 C   0  0  0  0  0  0  0  0  0  0  0  0
    1.7798   -0.9223    0.0000 C   0  0  0  0  0  0  0  0  0  0  0  0
    0.3532    1.6142    0.0000 C   0  0  0  0  0  0  0  0  0  0  0  0
   -0.5284    2.8276    0.0000 C   0  0  0  0  0  0  0  0  0  0  0  0
    3.0788   -3.1723    0.0000 C   0  0  0  0  0  0  0  0  0  0  0  0
    0.4809   -3.1723    0.0000 C   0  0  0  0  0  0  0  0  0  0  0  0
    5.6770   -3.1723    0.0000 C   0  0  0  0  0  0  0  0  0  0  0  0
    4.3779    2.0776    0.0000 C   0  0  0  0  0  0  0  0  0  0  0  0
    3.0788    4.3276    0.0000 C   0  0  0  0  0  0  0  0  0  0  0  0
   -2.0284    2.8276    0.0000 C   0  0  0  0  0  0  0  0  0  0  0  0
  1 14  1  0  0  0  0
  1 20  1  0  0  0  0
  2 22  1  0  0  0  0
  3 22  1  0  0  0  0
  4 22  1  0  0  0  0
  5 23  1  0  0  0  0
  6 23  1  0  0  0  0
  7 23  1  0  0  0  0
  8 26  2  0  0  0  0
  9 24  2  0  0  0  0
  9 25  1  0  0  0  0
 10 26  1  0  0  0  0
 11 12  2  0  0  0  0
 11 13  1  0  0  0  0
 11 24  1  0  0  0  0
 12 14  1  0  0  0  0
 12 19  1  0  0  0  0
 13 17  2  0  0  0  0
 13 18  1  0  0  0  0
 14 25  2  0  0  0  0
 15 18  2  0  0  0  0
 15 21  1  0  0  0  0
 15 22  1  0  0  0  0
 16 17  1  0  0  0  0
 16 21  2  0  0  0  0
 16 23  1  0  0  0  0
 19 20  2  0  0  0  0
 20 26  1  0  0  0  0
M  END
> <Value>
5.899998417198648

> <Relation>
<

> <SourceURI>
mol:CHEMBL2002322

$$$$

Generated by Molecular Materials Informatics

 16 18  0  0  0  0  0  0  0  0999 V2000
    1.8581   -0.9604    0.0000 N   0  0  0  0  0  0  0  0  0  0  0  0
   -0.4501   -1.7104    0.0000 N   0  0  0  0  0  0  0  0  0  0  0  0
   -0.0319    0.9296    0.0000 N   0  0  0  0  0  0  0  0  0  0  0  0
    3.1571   -0.2104    0.0000 C   0  0  0  0  0  0  0  0  0  0  0  0
    1.8581   -2.4604    0.0000 C   0  0  0  0  0  0  0  0  0  0  0  0
    0.4315   -0.4969    0.0000 C   0  0  0  0  0  0  0  0  0  0  0  0
    3.1571    1.2896    0.0000 C   0  0  0  0  0  0  0  0  0  0  0  0
    0.4315   -2.9240    0.0000 C   0  0  0  0  0  0  0  0  0  0  0  0
    4.4562   -0.9604    0.0000 C   0  0  0  0  0  0  0  0  0  0  0  0
    3.1571   -3.2103    0.0000 C   0  0  0  0  0  0  0  0  0  0  0  0
    4.4562   -2.4604    0.0000 C   0  0  0  0  0  0  0  0  0  0  0  0
    1.8581    2.0396    0.0000 C   0  0  0  0  0  0  0  0  0  0  0  0
    4.4562    2.0396    0.0000 C   0  0  0  0  0  0  0  0  0  0  0  0
    1.8581    3.5396    0.0000 C   0  0  0  0  0  0  0  0  0  0  0  0
    4.4562    3.5396    0.0000 C   0  0  0  0  0  0  0  0  0  0  0  0
    3.1571    4.2895    0.0000 C   0  0  0  0  0  0  0  0  0  0  0  0
  1  4  1  0  0  0  0
  1  5  1  0  0  0  0
  1  6  1  0  0  0  0
  2  6  2  0  0  0  0
  2  8  1  0  0  0  0
  3  6  1  0  0  0  0
  4  7  1  0  0  0  0
  4  9  2  0  0  0  0
  5  8  2  0  0  0  0
  5 10  1  0  0  0  0
  7 12  2  0  0  0  0
  7 13  1  0  0  0  0
  9 11  1  0  0  0  0
 10 11  2  0  0  0  0
 12 14  1  0  0  0  0
 13 15  2  0  0  0  0
 14 16  2  0  0  0  0
 15 16  1  0  0  0  0
M  END
> <Value>
4.300000029139088

> <Relation>
=

> <SourceURI>
mol:CHEMBL1997119

$$$$

Generated by Molecular Materials Informatics

 27 30  0  0  0  0  0  0  0  0999 V2000
   -4.9221   -7.9873    0.0000 F   0  0  0  0  0  0  0  0  0  0  0  0
    0.3299   -0.2307    0.0000 N   0  0  0  0  0  0  0  0  0  0  0  0
    0.3299    2.1964    0.0000 N   0  0  0  0  0  0  0  0  0  0  0  0
   -1.6008   -1.9691    0.0000 N   0  0  0  0  0  0  0  0  0  0  0  0
   -3.5316   -3.7077    0.0000 N   0  0  0  0  0  0  0  0  0  0  0  0
    0.4064   -4.1986    0.0000 N   0  0  0  0  0  0  0  0  0  0  0  0
    6.9526   -1.2671    0.0000 N   0  0  0  0  0  0  0  0  0  0  0  0
    1.7564    0.2329    0.0000 C   0  0  0  0  0  0  0  0  0  0  0  0
    1.7564    1.7329    0.0000 C   0  0  0  0  0  0  0  0  0  0  0  0
   -0.1336   -1.6573    0.0000 C   0  0  0  0  0  0  0  0  0  0  0  0
   -0.5517    0.9829    0.0000 C   0  0  0  0  0  0  0  0  0  0  0  0
    3.0555   -0.5171    0.0000 C   0  0  0  0  0  0  0  0  0  0  0  0
    4.3546    0.2329    0.0000 C   0  0  0  0  0  0  0  0  0  0  0  0
    3.0555    2.4829    0.0000 C   0  0  0  0  0  0  0  0  0  0  0  0
   -2.0645   -3.3958    0.0000 C   0  0  0  0  0  0  0  0  0  0  0  0
    0.8701   -2.7720    0.0000 C   0  0  0  0  0  0  0  0  0  0  0  0
    4.3546    1.7329    0.0000 C   0  0  0  0  0  0  0  0  0  0  0  0
   -3.9952   -5.1342    0.0000 C   0  0  0  0  0  0  0  0  0  0  0  0
   -1.0606   -4.5104    0.0000 C   0  0  0  0  0  0  0  0  0  0  0  0
   -5.4623   -5.4460    0.0000 C   0  0  0  0  0  0  0  0  0  0  0  0
   -5.9259   -6.8726    0.0000 C   0  0  0  0  0  0  0  0  0  0  0  0
    5.6535   -0.5171    0.0000 C   0  0  0  0  0  0  0  0  0  0  0  0
   -6.4661   -4.3313    0.0000 C   0  0  0  0  0  0  0  0  0  0  0  0
   -7.3932   -7.1846    0.0000 C   0  0  0  0  0  0  0  0  0  0  0  0
   -2.9914   -6.2489    0.0000 C   0  0  0  0  0  0  0  0  0  0  0  0
   -7.9332   -4.6433    0.0000 C   0  0  0  0  0  0  0  0  0  0  0  0
   -8.3968   -6.0698    0.0000 C   0  0  0  0  0  0  0  0  0  0  0  0
  1 21  1  0  0  0  0
  2  8  1  0  0  0  0
  2 10  1  0  0  0  0
  2 11  1  0  0  0  0
  3  9  1  0  0  0  0
  3 11  2  0  0  0  0
  4 10  2  0  0  0  0
  4 15  1  0  0  0  0
  5 15  1  0  0  0  0
  5 18  1  0  0  0  0
  6 16  2  0  0  0  0
  6 19  1  0  0  0  0
  7 22  3  0  0  0  0
  8  9  1  0  0  0  0
  8 12  2  0  0  0  0
  9 14  2  0  0  0  0
 10 16  1  0  0  0  0
 12 13  1  0  0  0  0
 13 17  2  0  0  0  0
 13 22  1  0  0  0  0
 14 17  1  0  0  0  0
 15 19  2  0  0  0  0
 18 20  1  0  0  0  0
 18 25  1  0  0  0  0
 20 21  1  0  0  0  0
 20 23  2  0  0  0  0
 21 24  2  0  0  0  0
 23 26  1  0  0  0  0
 24 27  1  0  0  0  0
 26 27  2  0  0  0  0
M  END
> <Value>
7.0

> <Relation>
=

> <SourceURI>
mol:CHEMBL1977138

$$$$

Generated by Molecular Materials Informatics

 18 20  0  0  0  0  0  0  0  0999 V2000
    4.8952    0.8959    0.0000 F   0  0  0  0  0  0  0  0  0  0  0  0
   -0.3010   -0.6041    0.0000 N   0  0  0  0  0  0  0  0  0  0  0  0
   -1.7275    1.3593    0.0000 N   0  0  0  0  0  0  0  0  0  0  0  0
   -2.6092    0.1458    0.0000 N   0  0  0  0  0  0  0  0  0  0  0  0
   -2.1910   -2.4943    0.0000 N   0  0  0  0  0  0  0  0  0  0  0  0
   -0.3010    0.8959    0.0000 C   0  0  0  0  0  0  0  0  0  0  0  0
    2.2972   -0.6041    0.0000 C   0  0  0  0  0  0  0  0  0  0  0  0
    3.5961   -1.3541    0.0000 C   0  0  0  0  0  0  0  0  0  0  0  0
   -1.7275   -1.0678    0.0000 C   0  0  0  0  0  0  0  0  0  0  0  0
    0.9981   -1.3541    0.0000 C   0  0  0  0  0  0  0  0  0  0  0  0
    0.9981    1.6459    0.0000 C   0  0  0  0  0  0  0  0  0  0  0  0
    2.2972    0.8959    0.0000 C   0  0  0  0  0  0  0  0  0  0  0  0
    4.8952   -0.6041    0.0000 C   0  0  0  0  0  0  0  0  0  0  0  0
    3.5961   -2.8541    0.0000 C   0  0  0  0  0  0  0  0  0  0  0  0
    4.8952   -3.6042    0.0000 C   0  0  0  0  0  0  0  0  0  0  0  0
    6.1943   -1.3541    0.0000 C   0  0  0  0  0  0  0  0  0  0  0  0
    6.1943   -2.8541    0.0000 C   0  0  0  0  0  0  0  0  0  0  0  0
    4.8952   -5.1042    0.0000 C   0  0  0  0  0  0  0  0  0  0  0  0
  1 13  1  0  0  0  0
  2  6  1  0  0  0  0
  2  9  1  0  0  0  0
  2 10  1  0  0  0  0
  3  4  1  0  0  0  0
  3  6  2  0  0  0  0
  4  9  2  0  0  0  0
  5  9  1  0  0  0  0
  6 11  1  0  0  0  0
  7  8  1  0  0  0  0
  7 10  2  0  0  0  0
  7 12  1  0  0  0  0
  8 13  1  0  0  0  0
  8 14  2  0  0  0  0
 11 12  2  0  0  0  0
 13 16  2  0  0  0  0
 14 15  1  0  0  0  0
 15 17  2  0  0  0  0
 15 18  1  0  0  0  0
 16 17  1  0  0  0  0
M  END
> <Value>
5.899998417198648

> <Relation>
<

> <SourceURI>
mol:CHEMBL2002323

$$$$

Generated by Molecular Materials Informatics

 32 34  0  0  0  0  0  0  0  0999 V2000
    0.2988    0.5085    0.0000 N   0  0  0  0  0  0  0  0  0  0  0  0
    0.2968   -0.9955    0.0000 C   0  0  0  0  0  0  0  0  0  0  0  0
    1.5962   -1.7462    0.0000 N   0  0  0  0  0  0  0  0  0  0  0  0
    2.8988   -0.9948    0.0000 C   0  0  0  0  0  0  0  0  0  0  0  0
    2.8937    0.5152    0.0000 C   0  0  0  0  0  0  0  0  0  0  0  0
    1.5930    1.2590    0.0000 C   0  0  0  0  0  0  0  0  0  0  0  0
   -1.0028   -1.7446    0.0000 N   0  0  0  0  0  0  0  0  0  0  0  0
   -2.3011   -0.9935    0.0000 C   0  0  0  0  0  0  0  0  0  0  0  0
    4.1918   -1.7384    0.0000 N   0  0  0  0  0  0  0  0  0  0  0  0
    4.2011   -3.2424    0.0000 C   0  0  0  0  0  0  0  0  0  0  0  0
    2.9009   -3.9998    0.0000 C   0  0  0  0  0  0  0  0  0  0  0  0
    2.9097   -5.5025    0.0000 C   0  0  0  0  0  0  0  0  0  0  0  0
    4.2178   -6.2480    0.0000 C   0  0  0  0  0  0  0  0  0  0  0  0
    5.5200   -5.4796    0.0000 C   0  0  0  0  0  0  0  0  0  0  0  0
    5.5049   -3.9795    0.0000 C   0  0  0  0  0  0  0  0  0  0  0  0
    4.1897    1.2701    0.0000 N   0  3  0  0  0  0  0  0  0  0  0  0
    4.1878    2.7722    0.0000 O   0  0  0  0  0  0  0  0  0  0  0  0
    5.4953    0.5274    0.0000 O   0  5  0  0  0  0  0  0  0  0  0  0
    6.7967   -3.2171    0.0000 C   0  0  0  0  0  0  0  0  0  0  0  0
    8.1025   -3.9547    0.0000 N   0  0  0  0  0  0  0  0  0  0  0  0
    6.7823   -1.7175    0.0000 O   0  0  0  0  0  0  0  0  0  0  0  0
   -2.2915    0.5061    0.0000 C   0  0  0  0  0  0  0  0  0  0  0  0
   -3.5884    1.2570    0.0000 C   0  0  0  0  0  0  0  0  0  0  0  0
   -4.8896    0.5079    0.0000 C   0  0  0  0  0  0  0  0  0  0  0  0
   -4.8860   -0.9997    0.0000 C   0  0  0  0  0  0  0  0  0  0  0  0
   -3.5882   -1.7437    0.0000 C   0  0  0  0  0  0  0  0  0  0  0  0
   -6.1889    1.2572    0.0000 O   0  0  0  0  0  0  0  0  0  0  0  0
   -6.1829   -1.7533    0.0000 O   0  0  0  0  0  0  0  0  0  0  0  0
   -3.5866    2.7568    0.0000 O   0  0  0  0  0  0  0  0  0  0  0  0
   -2.2866    3.5050    0.0000 C   0  0  0  0  0  0  0  0  0  0  0  0
   -7.4876    0.5065    0.0000 C   0  0  0  0  0  0  0  0  0  0  0  0
   -7.4840   -1.0068    0.0000 C   0  0  0  0  0  0  0  0  0  0  0  0
  4  9  1  0  0  0  0
  5 16  1  0  0  0  0
  3  4  2  0  0  0  0
  7  8  1  0  0  0  0
 16 17  2  0  0  0  0
 16 18  1  0  0  0  0
  9 10  1  0  0  0  0
 15 19  1  0  0  0  0
 19 20  1  0  0  0  0
  4  5  1  0  0  0  0
 19 21  2  0  0  0  0
  2  3  1  0  0  0  0
  8 22  2  0  0  0  0
 10 11  2  0  0  0  0
 22 23  1  0  0  0  0
  5  6  2  0  0  0  0
 23 24  2  0  0  0  0
 11 12  1  0  0  0  0
 24 25  1  0  0  0  0
  6  1  1  0  0  0  0
 25 26  2  0  0  0  0
 26  8  1  0  0  0  0
 12 13  2  0  0  0  0
 24 27  1  0  0  0  0
  1  2  2  0  0  0  0
 25 28  1  0  0  0  0
 13 14  1  0  0  0  0
 23 29  1  0  0  0  0
  2  7  1  0  0  0  0
 29 30  1  0  0  0  0
 14 15  2  0  0  0  0
 27 31  1  0  0  0  0
 15 10  1  0  0  0  0
 28 32  1  0  0  0  0
M  CHG  2  16   1  18  -1
M  END
> <Value>
6.699991797446187

> <Relation>
=

> <SourceURI>
mol:CHEMBL1241473

$$$$

Generated by Molecular Materials Informatics

 15 17  0  0  0  0  0  0  0  0999 V2000
   -1.7274    1.0217    0.0000 N   0  0  0  0  0  0  0  0  0  0  0  0
   -2.6090   -0.1917    0.0000 N   0  0  0  0  0  0  0  0  0  0  0  0
   -0.3009   -0.9417    0.0000 C   0  0  0  0  0  0  0  0  0  0  0  0
   -0.3009    0.5583    0.0000 C   0  0  0  0  0  0  0  0  0  0  0  0
    2.2972   -0.9417    0.0000 C   0  0  0  0  0  0  0  0  0  0  0  0
    0.9981   -1.6916    0.0000 C   0  0  0  0  0  0  0  0  0  0  0  0
    3.5960   -1.6916    0.0000 C   0  0  0  0  0  0  0  0  0  0  0  0
    0.9981    1.3083    0.0000 C   0  0  0  0  0  0  0  0  0  0  0  0
    2.2972    0.5583    0.0000 C   0  0  0  0  0  0  0  0  0  0  0  0
   -1.7274   -1.4053    0.0000 C   0  0  0  0  0  0  0  0  0  0  0  0
    4.8951   -0.9417    0.0000 C   0  0  0  0  0  0  0  0  0  0  0  0
    3.5960   -3.1916    0.0000 C   0  0  0  0  0  0  0  0  0  0  0  0
    6.1941   -1.6916    0.0000 C   0  0  0  0  0  0  0  0  0  0  0  0
    4.8951   -3.9416    0.0000 C   0  0  0  0  0  0  0  0  0  0  0  0
    6.1941   -3.1916    0.0000 C   0  0  0  0  0  0  0  0  0  0  0  0
  1  2  1  0  0  0  0
  1  4  1  0  0  0  0
  2 10  2  0  0  0  0
  3  4  2  0  0  0  0
  3  6  1  0  0  0  0
  3 10  1  0  0  0  0
  4  8  1  0  0  0  0
  5  6  1  0  0  0  0
  5  7  1  0  0  0  0
  5  9  1  0  0  0  0
  7 11  2  0  0  0  0
  7 12  1  0  0  0  0
  8  9  1  0  0  0  0
 11 13  1  0  0  0  0
 12 14  2  0  0  0  0
 13 15  2  0  0  0  0
 14 15  1  0  0  0  0
M  END
> <Value>
4.100000018985305

> <Relation>
=

> <SourceURI>
mol:CHEMBL2000879

$$$$

Generated by Molecular Materials Informatics

 23 26  0  0  0  0  0  0  0  0999 V2000
   -4.0639   -0.1979    0.0000 O   0  0  0  0  0  0  0  0  0  0  0  0
    7.5384    3.5521    0.0000 O   0  0  0  0  0  0  0  0  0  0  0  0
   -1.6823    1.0155    0.0000 N   0  0  0  0  0  0  0  0  0  0  0  0
   -1.4539   -5.4201    0.0000 N   0  0  0  0  0  0  0  0  0  0  0  0
   -0.2558   -0.9479    0.0000 C   0  0  0  0  0  0  0  0  0  0  0  0
   -0.2558    0.5521    0.0000 C   0  0  0  0  0  0  0  0  0  0  0  0
   -1.6823   -1.4115    0.0000 C   0  0  0  0  0  0  0  0  0  0  0  0
   -2.5639   -0.1979    0.0000 C   0  0  0  0  0  0  0  0  0  0  0  0
    2.3424    0.5521    0.0000 C   0  0  0  0  0  0  0  0  0  0  0  0
    1.0433    1.3021    0.0000 C   0  0  0  0  0  0  0  0  0  0  0  0
    1.0433   -1.6979    0.0000 C   0  0  0  0  0  0  0  0  0  0  0  0
   -2.1458   -2.8381    0.0000 C   0  0  0  0  0  0  0  0  0  0  0  0
    2.3424   -0.9479    0.0000 C   0  0  0  0  0  0  0  0  0  0  0  0
    3.6413    1.3021    0.0000 C   0  0  0  0  0  0  0  0  0  0  0  0
   -1.1421   -3.9528    0.0000 C   0  0  0  0  0  0  0  0  0  0  0  0
    3.6413    2.8021    0.0000 C   0  0  0  0  0  0  0  0  0  0  0  0
    4.9404    0.5521    0.0000 C   0  0  0  0  0  0  0  0  0  0  0  0
    0.3497   -3.7961    0.0000 C   0  0  0  0  0  0  0  0  0  0  0  0
    4.9404    3.5521    0.0000 C   0  0  0  0  0  0  0  0  0  0  0  0
    6.2395    1.3021    0.0000 C   0  0  0  0  0  0  0  0  0  0  0  0
    6.2395    2.8021    0.0000 C   0  0  0  0  0  0  0  0  0  0  0  0
   -0.1550   -6.1701    0.0000 C   0  0  0  0  0  0  0  0  0  0  0  0
    0.9597   -5.1663    0.0000 C   0  0  0  0  0  0  0  0  0  0  0  0
  1  8  2  0  0  0  0
  2 21  1  0  0  0  0
  3  6  1  0  0  0  0
  3  8  1  0  0  0  0
  4 15  1  0  0  0  0
  4 22  1  0  0  0  0
  5  6  1  0  0  0  0
  5  7  1  0  0  0  0
  5 11  2  0  0  0  0
  6 10  2  0  0  0  0
  7  8  1  0  0  0  0
  7 12  2  0  0  0  0
  9 10  1  0  0  0  0
  9 13  2  0  0  0  0
  9 14  1  0  0  0  0
 11 13  1  0  0  0  0
 12 15  1  0  0  0  0
 14 16  2  0  0  0  0
 14 17  1  0  0  0  0
 15 18  2  0  0  0  0
 16 19  1  0  0  0  0
 17 20  2  0  0  0  0
 18 23  1  0  0  0  0
 19 21  2  0  0  0  0
 20 21  1  0  0  0  0
 22 23  2  0  0  0  0
M  END
> <Value>
8.100179497572904

> <Relation>
=

> <SourceURI>
mol:CHEMBL1980329

$$$$

Generated by Molecular Materials Informatics

 35 38  0  0  0  0  0  0  0  0999 V2000
    0.7929    3.4419    0.0000 S   0  0  0  0  0  0  0  0  0  0  0  0
   -3.5322   -3.8886    0.0000 O   0  0  0  0  0  0  0  0  0  0  0  0
    4.8176    1.4783    0.0000 N   0  0  0  0  0  0  0  0  0  0  0  0
    3.5185   -0.7717    0.0000 N   0  0  0  0  0  0  0  0  0  0  0  0
   -1.0613   -4.6915    0.0000 N   0  0  0  0  0  0  0  0  0  0  0  0
   -2.9920   -6.4299    0.0000 N   0  0  0  0  0  0  0  0  0  0  0  0
    2.2195    8.9783    0.0000 N   0  0  0  0  0  0  0  0  0  0  0  0
    2.2195    1.4783    0.0000 C   0  0  0  0  0  0  0  0  0  0  0  0
    2.2195    2.9783    0.0000 C   0  0  0  0  0  0  0  0  0  0  0  0
    0.7929    1.0148    0.0000 C   0  0  0  0  0  0  0  0  0  0  0  0
    3.5185    0.7283    0.0000 C   0  0  0  0  0  0  0  0  0  0  0  0
    3.5185    3.7283    0.0000 C   0  0  0  0  0  0  0  0  0  0  0  0
    0.3295   -0.4117    0.0000 C   0  0  0  0  0  0  0  0  0  0  0  0
   -0.0887    2.2283    0.0000 C   0  0  0  0  0  0  0  0  0  0  0  0
    4.8176    2.9783    0.0000 C   0  0  0  0  0  0  0  0  0  0  0  0
    1.3331   -1.5264    0.0000 C   0  0  0  0  0  0  0  0  0  0  0  0
   -1.1378   -0.7235    0.0000 C   0  0  0  0  0  0  0  0  0  0  0  0
    3.5185    5.2283    0.0000 C   0  0  0  0  0  0  0  0  0  0  0  0
   -0.5976   -3.2650    0.0000 C   0  0  0  0  0  0  0  0  0  0  0  0
    0.8695   -2.9530    0.0000 C   0  0  0  0  0  0  0  0  0  0  0  0
   -1.6015   -2.1502    0.0000 C   0  0  0  0  0  0  0  0  0  0  0  0
    3.5185    6.7283    0.0000 C   0  0  0  0  0  0  0  0  0  0  0  0
   -2.5284   -5.0033    0.0000 C   0  0  0  0  0  0  0  0  0  0  0  0
    3.5185    8.2283    0.0000 C   0  0  0  0  0  0  0  0  0  0  0  0
   -4.4591   -6.7419    0.0000 C   0  0  0  0  0  0  0  0  0  0  0  0
   -4.9227   -8.1684    0.0000 C   0  0  0  0  0  0  0  0  0  0  0  0
   -5.4629   -5.6272    0.0000 C   0  0  0  0  0  0  0  0  0  0  0  0
   -6.3900   -8.4802    0.0000 C   0  0  0  0  0  0  0  0  0  0  0  0
   -6.9302   -5.9390    0.0000 C   0  0  0  0  0  0  0  0  0  0  0  0
   -7.3936   -7.3655    0.0000 C   0  0  0  0  0  0  0  0  0  0  0  0
    2.2195   10.4783    0.0000 C   0  0  0  0  0  0  0  0  0  0  0  0
    0.9204    8.2283    0.0000 C   0  0  0  0  0  0  0  0  0  0  0  0
   -6.8535   -9.9068    0.0000 C   0  0  0  0  0  0  0  0  0  0  0  0
    0.9204   11.2283    0.0000 C   0  0  0  0  0  0  0  0  0  0  0  0
   -0.3785    8.9783    0.0000 C   0  0  0  0  0  0  0  0  0  0  0  0
  1  9  1  0  0  0  0
  1 14  1  0  0  0  0
  2 23  2  0  0  0  0
  3 11  2  0  0  0  0
  3 15  1  0  0  0  0
  4 11  1  0  0  0  0
  5 19  1  0  0  0  0
  5 23  1  0  0  0  0
  6 23  1  0  0  0  0
  6 25  1  0  0  0  0
  7 24  1  0  0  0  0
  7 31  1  0  0  0  0
  7 32  1  0  0  0  0
  8  9  2  0  0  0  0
  8 10  1  0  0  0  0
  8 11  1  0  0  0  0
  9 12  1  0  0  0  0
 10 13  1  0  0  0  0
 10 14  2  0  0  0  0
 12 15  2  0  0  0  0
 12 18  1  0  0  0  0
 13 16  2  0  0  0  0
 13 17  1  0  0  0  0
 16 20  1  0  0  0  0
 17 21  2  0  0  0  0
 18 22  3  0  0  0  0
 19 20  2  0  0  0  0
 19 21  1  0  0  0  0
 22 24  1  0  0  0  0
 25 26  1  0  0  0  0
 25 27  2  0  0  0  0
 26 28  2  0  0  0  0
 27 29  1  0  0  0  0
 28 30  1  0  0  0  0
 28 33  1  0  0  0  0
 29 30  2  0  0  0  0
 31 34  1  0  0  0  0
 32 35  1  0  0  0  0
M  END
> <Value>
5.59999938302362

> <Relation>
<

> <SourceURI>
mol:CHEMBL2001257

$$$$

Generated by Molecular Materials Informatics

 33 38  0  0  0  0  0  0  0  0999 V2000
   14.1148    1.3646    0.0000 F   0  0  0  0  0  0  0  0  0  0  0  0
    9.1292   -3.3676    0.0000 O   0  0  0  0  0  0  0  0  0  0  0  0
    1.2748   -2.2245    0.0000 N   0  0  0  0  0  0  0  0  0  0  0  0
    7.7290   -1.1791    0.0000 N   0  0  0  0  0  0  0  0  0  0  0  0
   -0.1256   -0.0360    0.0000 C   0  0  0  0  0  0  0  0  0  0  0  0
    1.1381    0.7724    0.0000 C   0  0  0  0  0  0  0  0  0  0  0  0
    2.4699    0.0824    0.0000 C   0  0  0  0  0  0  0  0  0  0  0  0
   -0.0572   -1.5345    0.0000 C   0  0  0  0  0  0  0  0  0  0  0  0
    2.5382   -1.4160    0.0000 C   0  0  0  0  0  0  0  0  0  0  0  0
   -1.4574    0.6540    0.0000 C   0  0  0  0  0  0  0  0  0  0  0  0
   -2.7209   -0.1543    0.0000 C   0  0  0  0  0  0  0  0  0  0  0  0
    3.8701   -2.1060    0.0000 C   0  0  0  0  0  0  0  0  0  0  0  0
    1.3826    2.2524    0.0000 C   0  0  0  0  0  0  0  0  0  0  0  0
    3.5377    1.1359    0.0000 C   0  0  0  0  0  0  0  0  0  0  0  0
   -1.3207   -2.3429    0.0000 C   0  0  0  0  0  0  0  0  0  0  0  0
   -2.6525   -1.6529    0.0000 C   0  0  0  0  0  0  0  0  0  0  0  0
    2.8657    2.4770    0.0000 C   0  0  0  0  0  0  0  0  0  0  0  0
   -1.5258    2.1524    0.0000 C   0  0  0  0  0  0  0  0  0  0  0  0
    5.1337   -1.2976    0.0000 C   0  0  0  0  0  0  0  0  0  0  0  0
   -4.0529    0.5357    0.0000 C   0  0  0  0  0  0  0  0  0  0  0  0
    3.9384   -3.6045    0.0000 C   0  0  0  0  0  0  0  0  0  0  0  0
    6.4655   -1.9876    0.0000 C   0  0  0  0  0  0  0  0  0  0  0  0
   -2.8576    2.8424    0.0000 C   0  0  0  0  0  0  0  0  0  0  0  0
   -4.1212    2.0340    0.0000 C   0  0  0  0  0  0  0  0  0  0  0  0
    5.2704   -4.2945    0.0000 C   0  0  0  0  0  0  0  0  0  0  0  0
    6.5339   -3.4860    0.0000 C   0  0  0  0  0  0  0  0  0  0  0  0
    9.0608   -1.8692    0.0000 C   0  0  0  0  0  0  0  0  0  0  0  0
   10.3244   -1.0607    0.0000 C   0  0  0  0  0  0  0  0  0  0  0  0
   10.2561    0.4377    0.0000 C   0  0  0  0  0  0  0  0  0  0  0  0
   11.6563   -1.7507    0.0000 C   0  0  0  0  0  0  0  0  0  0  0  0
   12.8514    0.5562    0.0000 C   0  0  0  0  0  0  0  0  0  0  0  0
   11.5195    1.2462    0.0000 C   0  0  0  0  0  0  0  0  0  0  0  0
   12.9197   -0.9423    0.0000 C   0  0  0  0  0  0  0  0  0  0  0  0
  1 31  1  0  0  0  0
  2 27  2  0  0  0  0
  3  8  1  0  0  0  0
  3  9  1  0  0  0  0
  4 22  1  0  0  0  0
  4 27  1  0  0  0  0
  5  6  1  0  0  0  0
  5  8  1  0  0  0  0
  5 10  2  0  0  0  0
  6  7  1  0  0  0  0
  6 13  1  0  0  0  0
  7  9  1  0  0  0  0
  7 14  1  0  0  0  0
  8 15  2  0  0  0  0
  9 12  1  0  0  0  0
 10 11  1  0  0  0  0
 10 18  1  0  0  0  0
 11 16  2  0  0  0  0
 11 20  1  0  0  0  0
 12 19  2  0  0  0  0
 12 21  1  0  0  0  0
 13 17  2  0  0  0  0
 14 17  1  0  0  0  0
 15 16  1  0  0  0  0
 18 23  2  0  0  0  0
 19 22  1  0  0  0  0
 20 24  2  0  0  0  0
 21 25  2  0  0  0  0
 22 26  2  0  0  0  0
 23 24  1  0  0  0  0
 25 26  1  0  0  0  0
 27 28  1  0  0  0  0
 28 29  2  0  0  0  0
 28 30  1  0  0  0  0
 29 32  1  0  0  0  0
 30 33  2  0  0  0  0
 31 32  2  0  0  0  0
 31 33  1  0  0  0  0
M  END
> <Value>
5.300000202445418

> <Relation>
<

> <SourceURI>
mol:CHEMBL1992042

$$$$

Generated by Molecular Materials Informatics

 33 36  0  0  0  0  0  0  0  0999 V2000
    6.5405    3.9261    0.0000 Cl  0  0  0  0  0  0  0  0  0  0  0  0
   11.0404    6.5240    0.0000 Cl  0  0  0  0  0  0  0  0  0  0  0  0
    3.9797   -3.1072    0.0000 O   0  0  0  0  0  0  0  0  0  0  0  0
    7.4777   -2.1699    0.0000 O   0  0  0  0  0  0  0  0  0  0  0  0
   -4.2119   -4.0612    0.0000 O   0  0  0  0  0  0  0  0  0  0  0  0
   -1.7410   -4.8641    0.0000 O   0  0  0  0  0  0  0  0  0  0  0  0
    3.0425    0.3908    0.0000 N   0  0  0  0  0  0  0  0  0  0  0  0
   -2.2811   -2.3228    0.0000 N   0  0  0  0  0  0  0  0  0  0  0  0
    6.5405    1.3281    0.0000 N   0  0  0  0  0  0  0  0  0  0  0  0
   -3.1628   -1.1092    0.0000 N   0  0  0  0  0  0  0  0  0  0  0  0
    4.3416   -0.3592    0.0000 C   0  0  0  0  0  0  0  0  0  0  0  0
    5.7905    0.0290    0.0000 C   0  0  0  0  0  0  0  0  0  0  0  0
    4.7297   -1.8081    0.0000 C   0  0  0  0  0  0  0  0  0  0  0  0
    6.1786   -1.4199    0.0000 C   0  0  0  0  0  0  0  0  0  0  0  0
   -0.8546   -1.8592    0.0000 C   0  0  0  0  0  0  0  0  0  0  0  0
   -0.8546   -0.3592    0.0000 C   0  0  0  0  0  0  0  0  0  0  0  0
    1.7436   -0.3592    0.0000 C   0  0  0  0  0  0  0  0  0  0  0  0
    0.4445    0.3908    0.0000 C   0  0  0  0  0  0  0  0  0  0  0  0
    0.4445   -2.6092    0.0000 C   0  0  0  0  0  0  0  0  0  0  0  0
   -2.2811    0.1043    0.0000 C   0  0  0  0  0  0  0  0  0  0  0  0
    1.7436   -1.8592    0.0000 C   0  0  0  0  0  0  0  0  0  0  0  0
   -2.7446   -3.7494    0.0000 C   0  0  0  0  0  0  0  0  0  0  0  0
    8.0404    1.3281    0.0000 C   0  0  0  0  0  0  0  0  0  0  0  0
    8.7904    2.6270    0.0000 C   0  0  0  0  0  0  0  0  0  0  0  0
   -4.6755   -5.4879    0.0000 C   0  0  0  0  0  0  0  0  0  0  0  0
    8.0404    3.9261    0.0000 C   0  0  0  0  0  0  0  0  0  0  0  0
   10.2904    2.6270    0.0000 C   0  0  0  0  0  0  0  0  0  0  0  0
    8.7904    5.2251    0.0000 C   0  0  0  0  0  0  0  0  0  0  0  0
   10.2904    5.2251    0.0000 C   0  0  0  0  0  0  0  0  0  0  0  0
   11.0404    3.9261    0.0000 C   0  0  0  0  0  0  0  0  0  0  0  0
   -5.1389   -6.9144    0.0000 C   0  0  0  0  0  0  0  0  0  0  0  0
   -6.1020   -5.0243    0.0000 C   0  0  0  0  0  0  0  0  0  0  0  0
   -3.2488   -5.9514    0.0000 C   0  0  0  0  0  0  0  0  0  0  0  0
  1 26  1  0  0  0  0
  2 29  1  0  0  0  0
  3 13  2  0  0  0  0
  4 14  2  0  0  0  0
  5 22  1  0  0  0  0
  5 25  1  0  0  0  0
  6 22  2  0  0  0  0
  7 11  1  0  0  0  0
  7 17  1  0  0  0  0
  8 10  1  0  0  0  0
  8 15  1  0  0  0  0
  8 22  1  0  0  0  0
  9 12  1  0  0  0  0
  9 23  1  0  0  0  0
 10 20  2  0  0  0  0
 11 12  2  0  0  0  0
 11 13  1  0  0  0  0
 12 14  1  0  0  0  0
 13 14  1  0  0  0  0
 15 16  1  0  0  0  0
 15 19  2  0  0  0  0
 16 18  2  0  0  0  0
 16 20  1  0  0  0  0
 17 18  1  0  0  0  0
 17 21  2  0  0  0  0
 19 21  1  0  0  0  0
 23 24  1  0  0  0  0
 24 26  1  0  0  0  0
 24 27  2  0  0  0  0
 25 31  1  0  0  0  0
 25 32  1  0  0  0  0
 25 33  1  0  0  0  0
 26 28  2  0  0  0  0
 27 30  1  0  0  0  0
 28 29  1  0  0  0  0
 29 30  2  0  0  0  0
M  END
> <Value>
5.899998417198648

> <Relation>
<

> <SourceURI>
mol:CHEMBL2005548

$$$$

Generated by Molecular Materials Informatics

 33 37  0  0  0  0  0  0  0  0999 V2000
   -5.7440   -7.0230    0.0000 O   0  0  0  0  0  0  0  0  0  0  0  0
   -4.9411   -4.5521    0.0000 O   0  0  0  0  0  0  0  0  0  0  0  0
    0.6089   -1.1012    0.0000 O   0  0  0  0  0  0  0  0  0  0  0  0
   -1.9891   -5.6012    0.0000 N   0  0  0  0  0  0  0  0  0  0  0  0
   -2.7391   -7.9094    0.0000 C   0  0  0  0  0  0  0  0  0  0  0  0
   -3.2027   -6.4829    0.0000 C   0  0  0  0  0  0  0  0  0  0  0  0
   -1.2391   -7.9094    0.0000 C   0  0  0  0  0  0  0  0  0  0  0  0
   -0.7757   -6.4829    0.0000 C   0  0  0  0  0  0  0  0  0  0  0  0
   -3.6209   -9.1231    0.0000 C   0  0  0  0  0  0  0  0  0  0  0  0
   -4.6293   -6.0194    0.0000 C   0  0  0  0  0  0  0  0  0  0  0  0
   -0.2355   -9.0241    0.0000 C   0  0  0  0  0  0  0  0  0  0  0  0
    0.6916   -6.1711    0.0000 C   0  0  0  0  0  0  0  0  0  0  0  0
   -1.9891   -4.1012    0.0000 C   0  0  0  0  0  0  0  0  0  0  0  0
   -3.0107  -10.4934    0.0000 C   0  0  0  0  0  0  0  0  0  0  0  0
   -5.1126   -8.9661    0.0000 C   0  0  0  0  0  0  0  0  0  0  0  0
    1.2318   -8.7123    0.0000 C   0  0  0  0  0  0  0  0  0  0  0  0
    1.6953   -7.2858    0.0000 C   0  0  0  0  0  0  0  0  0  0  0  0
   -3.8924  -11.7069    0.0000 C   0  0  0  0  0  0  0  0  0  0  0  0
   -0.6902   -3.3512    0.0000 C   0  0  0  0  0  0  0  0  0  0  0  0
   -5.9944  -10.1798    0.0000 C   0  0  0  0  0  0  0  0  0  0  0  0
   -5.3842  -11.5501    0.0000 C   0  0  0  0  0  0  0  0  0  0  0  0
    1.9080    1.1488    0.0000 C   0  0  0  0  0  0  0  0  0  0  0  0
   -1.5189  -10.6501    0.0000 C   0  0  0  0  0  0  0  0  0  0  0  0
    0.6089    0.3988    0.0000 C   0  0  0  0  0  0  0  0  0  0  0  0
    1.9080    2.6488    0.0000 C   0  0  0  0  0  0  0  0  0  0  0  0
   -0.6902   -1.8512    0.0000 C   0  0  0  0  0  0  0  0  0  0  0  0
   -0.6902    1.1488    0.0000 C   0  0  0  0  0  0  0  0  0  0  0  0
    3.2069    0.3988    0.0000 C   0  0  0  0  0  0  0  0  0  0  0  0
    0.6089    3.3988    0.0000 C   0  0  0  0  0  0  0  0  0  0  0  0
    3.2069    3.3988    0.0000 C   0  0  0  0  0  0  0  0  0  0  0  0
   -0.6902    2.6488    0.0000 C   0  0  0  0  0  0  0  0  0  0  0  0
    4.5060    1.1488    0.0000 C   0  0  0  0  0  0  0  0  0  0  0  0
    4.5060    2.6488    0.0000 C   0  0  0  0  0  0  0  0  0  0  0  0
  1 10  2  0  0  0  0
  2 10  1  0  0  0  0
  3 24  1  0  0  0  0
  3 26  1  0  0  0  0
  4  6  1  0  0  0  0
  4  8  1  0  0  0  0
  4 13  1  0  0  0  0
  5  6  2  0  0  0  0
  5  7  1  0  0  0  0
  5  9  1  0  0  0  0
  6 10  1  0  0  0  0
  7  8  1  0  0  0  0
  7 11  2  0  0  0  0
  8 12  2  0  0  0  0
  9 14  1  0  0  0  0
  9 15  2  0  0  0  0
 11 16  1  0  0  0  0
 12 17  1  0  0  0  0
 13 19  1  0  0  0  0
 14 18  2  0  0  0  0
 14 23  1  0  0  0  0
 15 20  1  0  0  0  0
 16 17  2  0  0  0  0
 18 21  1  0  0  0  0
 19 26  1  0  0  0  0
 20 21  2  0  0  0  0
 22 24  1  0  0  0  0
 22 25  1  0  0  0  0
 22 28  2  0  0  0  0
 24 27  2  0  0  0  0
 25 29  1  0  0  0  0
 25 30  2  0  0  0  0
 27 31  1  0  0  0  0
 28 32  1  0  0  0  0
 29 31  2  0  0  0  0
 30 33  1  0  0  0  0
 32 33  2  0  0  0  0
M  END
> <Value>
5.899998417198648

> <Relation>
=

> <SourceURI>
mol:CHEMBL1987793

$$$$

Generated by Molecular Materials Informatics

 26 29  0  0  0  0  0  0  0  0999 V2000
   -0.6435   -1.3854    0.0000 O   0  0  0  0  0  0  0  0  0  0  0  0
    1.9170   -3.9461    0.0000 O   0  0  0  0  0  0  0  0  0  0  0  0
   11.2277   -0.0863    0.0000 O   0  0  0  0  0  0  0  0  0  0  0  0
    1.9170    1.1752    0.0000 N   0  0  0  0  0  0  0  0  0  0  0  0
    4.4778   -1.3854    0.0000 N   0  0  0  0  0  0  0  0  0  0  0  0
   -3.4066    3.8888    0.0000 N   0  0  0  0  0  0  0  0  0  0  0  0
   -4.2882    2.6752    0.0000 N   0  0  0  0  0  0  0  0  0  0  0  0
    1.9170   -0.3248    0.0000 C   0  0  0  0  0  0  0  0  0  0  0  0
    2.9777   -1.3854    0.0000 C   0  0  0  0  0  0  0  0  0  0  0  0
    0.8565   -1.3854    0.0000 C   0  0  0  0  0  0  0  0  0  0  0  0
    1.9170   -2.4461    0.0000 C   0  0  0  0  0  0  0  0  0  0  0  0
    0.6181    1.9252    0.0000 C   0  0  0  0  0  0  0  0  0  0  0  0
   -1.9801    1.9252    0.0000 C   0  0  0  0  0  0  0  0  0  0  0  0
   -1.9801    3.4252    0.0000 C   0  0  0  0  0  0  0  0  0  0  0  0
   -0.6810    1.1752    0.0000 C   0  0  0  0  0  0  0  0  0  0  0  0
    0.6181    3.4252    0.0000 C   0  0  0  0  0  0  0  0  0  0  0  0
   -0.6810    4.1752    0.0000 C   0  0  0  0  0  0  0  0  0  0  0  0
    5.2278   -0.0863    0.0000 C   0  0  0  0  0  0  0  0  0  0  0  0
   -3.4066    1.4617    0.0000 C   0  0  0  0  0  0  0  0  0  0  0  0
    6.7277   -0.0863    0.0000 C   0  0  0  0  0  0  0  0  0  0  0  0
    7.4777    1.2126    0.0000 C   0  0  0  0  0  0  0  0  0  0  0  0
    7.4777   -1.3854    0.0000 C   0  0  0  0  0  0  0  0  0  0  0  0
    9.7277   -0.0863    0.0000 C   0  0  0  0  0  0  0  0  0  0  0  0
    8.9777    1.2126    0.0000 C   0  0  0  0  0  0  0  0  0  0  0  0
    8.9777   -1.3854    0.0000 C   0  0  0  0  0  0  0  0  0  0  0  0
   11.9777    1.2126    0.0000 C   0  0  0  0  0  0  0  0  0  0  0  0
  1 10  2  0  0  0  0
  2 11  2  0  0  0  0
  3 23  1  0  0  0  0
  3 26  1  0  0  0  0
  4  8  1  0  0  0  0
  4 12  1  0  0  0  0
  5  9  1  0  0  0  0
  5 18  1  0  0  0  0
  6  7  1  0  0  0  0
  6 14  1  0  0  0  0
  7 19  2  0  0  0  0
  8  9  2  0  0  0  0
  8 10  1  0  0  0  0
  9 11  1  0  0  0  0
 10 11  1  0  0  0  0
 12 15  1  0  0  0  0
 12 16  2  0  0  0  0
 13 14  1  0  0  0  0
 13 15  2  0  0  0  0
 13 19  1  0  0  0  0
 14 17  2  0  0  0  0
 16 17  1  0  0  0  0
 18 20  1  0  0  0  0
 20 21  2  0  0  0  0
 20 22  1  0  0  0  0
 21 24  1  0  0  0  0
 22 25  2  0  0  0  0
 23 24  2  0  0  0  0
 23 25  1  0  0  0  0
M  END
> <Value>
5.899998417198648

> <Relation>
<

> <SourceURI>
mol:CHEMBL1992536

$$$$

Generated by Molecular Materials Informatics

 23 26  0  0  0  0  0  0  0  0999 V2000
    0.8283    4.7627    0.0000 O   0  0  0  0  0  0  0  0  0  0  0  0
    1.5783    3.4636    0.0000 C   0  0  0  0  0  0  0  0  0  0  0  0
    3.0783    3.4636    0.0000 N   0  0  0  0  0  0  0  0  0  0  0  0
    3.8283    2.1647    0.0000 C   0  0  0  0  0  0  0  0  0  0  0  0
    3.0783    0.8656    0.0000 C   0  0  0  0  0  0  0  0  0  0  0  0
    1.5783    0.8656    0.0000 C   0  0  0  0  0  0  0  0  0  0  0  0
    0.8283   -0.4335    0.0000 C   0  0  0  0  0  0  0  0  0  0  0  0
    0.8283    2.1647    0.0000 C   0  0  0  0  0  0  0  0  0  0  0  0
   -0.6717    2.1647    0.0000 C   0  0  0  0  0  0  0  0  0  0  0  0
   -1.4217    3.4636    0.0000 C   0  0  0  0  0  0  0  0  0  0  0  0
   -2.9217    3.4636    0.0000 C   0  0  0  0  0  0  0  0  0  0  0  0
   -3.6717    4.7627    0.0000 F   0  0  0  0  0  0  0  0  0  0  0  0
   -3.6717    2.1647    0.0000 C   0  0  0  0  0  0  0  0  0  0  0  0
   -2.9217    0.8656    0.0000 C   0  0  0  0  0  0  0  0  0  0  0  0
   -1.4217    0.8656    0.0000 C   0  0  0  0  0  0  0  0  0  0  0  0
   -0.6717   -0.4335    0.0000 C   0  0  0  0  0  0  0  0  0  0  0  0
   -1.1353   -1.8600    0.0000 N   0  0  0  0  0  0  0  0  0  0  0  0
    0.0783   -2.7417    0.0000 C   0  0  0  0  0  0  0  0  0  0  0  0
    1.2918   -1.8600    0.0000 N   0  0  0  0  0  0  0  0  0  0  0  0
    0.0783   -4.2417    0.0000 C   0  0  0  0  0  0  0  0  0  0  0  0
    0.0783   -5.7417    0.0000 C   0  0  0  0  0  0  0  0  0  0  0  0
   -1.4217   -4.2417    0.0000 C   0  0  0  0  0  0  0  0  0  0  0  0
    1.5783   -4.2417    0.0000 C   0  0  0  0  0  0  0  0  0  0  0  0
  2  1  2  0  0  0  0
  2  3  1  0  0  0  0
  8  2  1  0  0  0  0
  4  3  1  0  0  0  0
  4  5  2  0  0  0  0
  5  6  1  0  0  0  0
  7  6  2  0  0  0  0
  8  6  1  0  0  0  0
 16  7  1  0  0  0  0
  7 19  1  0  0  0  0
  8  9  2  0  0  0  0
 10  9  1  0  0  0  0
 15  9  1  0  0  0  0
 11 10  2  0  0  0  0
 11 12  1  0  0  0  0
 13 11  1  0  0  0  0
 14 13  2  0  0  0  0
 15 14  1  0  0  0  0
 16 15  2  0  0  0  0
 16 17  1  0  0  0  0
 18 17  2  0  0  0  0
 18 19  1  0  0  0  0
 20 18  1  0  0  0  0
 20 21  1  0  0  0  0
 20 22  1  0  0  0  0
 20 23  1  0  0  0  0
M  END
> <Value>
9.0

> <Relation>
=

> <SourceURI>
mol:CHEMBL21156

$$$$

Generated by Molecular Materials Informatics

 24 26  0  0  0  0  0  0  0  0999 V2000
    3.3709   -1.8943    0.0000 S   0  0  0  0  0  0  0  0  0  0  0  0
    5.2809   -4.3777    0.0000 O   0  0  0  0  0  0  0  0  0  0  0  0
    4.6038  -12.2859    0.0000 O   0  0  0  0  0  0  0  0  0  0  0  0
    3.1789   -5.9048    0.0000 N   0  0  0  0  0  0  0  0  0  0  0  0
    2.1574    3.4874    0.0000 N   0  0  0  0  0  0  0  0  0  0  0  0
    2.9074   -3.3210    0.0000 C   0  0  0  0  0  0  0  0  0  0  0  0
    2.1574   -1.0126    0.0000 C   0  0  0  0  0  0  0  0  0  0  0  0
    3.7890   -4.5344    0.0000 C   0  0  0  0  0  0  0  0  0  0  0  0
    2.1574    0.4874    0.0000 C   0  0  0  0  0  0  0  0  0  0  0  0
    1.4074   -3.3210    0.0000 C   0  0  0  0  0  0  0  0  0  0  0  0
    0.9438   -1.8943    0.0000 C   0  0  0  0  0  0  0  0  0  0  0  0
    4.0607   -7.1182    0.0000 C   0  0  0  0  0  0  0  0  0  0  0  0
    3.4505   -8.4886    0.0000 C   0  0  0  0  0  0  0  0  0  0  0  0
    3.4563    1.2374    0.0000 C   0  0  0  0  0  0  0  0  0  0  0  0
    0.8583    1.2374    0.0000 C   0  0  0  0  0  0  0  0  0  0  0  0
    4.3321   -9.7021    0.0000 C   0  0  0  0  0  0  0  0  0  0  0  0
    3.7221  -11.0724    0.0000 C   0  0  0  0  0  0  0  0  0  0  0  0
    1.9587   -8.6453    0.0000 C   0  0  0  0  0  0  0  0  0  0  0  0
    3.4563    2.7374    0.0000 C   0  0  0  0  0  0  0  0  0  0  0  0
    0.8583    2.7374    0.0000 C   0  0  0  0  0  0  0  0  0  0  0  0
    2.2303  -11.2292    0.0000 C   0  0  0  0  0  0  0  0  0  0  0  0
    1.3487  -10.0157    0.0000 C   0  0  0  0  0  0  0  0  0  0  0  0
    5.5523   -6.9615    0.0000 C   0  0  0  0  0  0  0  0  0  0  0  0
    6.0956  -12.1292    0.0000 C   0  0  0  0  0  0  0  0  0  0  0  0
  1  6  1  0  0  0  0
  1  7  1  0  0  0  0
  2  8  2  0  0  0  0
  3 17  1  0  0  0  0
  3 24  1  0  0  0  0
  4  8  1  0  0  0  0
  4 12  1  0  0  0  0
  5 19  2  0  0  0  0
  5 20  1  0  0  0  0
  6  8  1  0  0  0  0
  6 10  2  0  0  0  0
  7  9  1  0  0  0  0
  7 11  2  0  0  0  0
  9 14  2  0  0  0  0
  9 15  1  0  0  0  0
 10 11  1  0  0  0  0
 12 13  1  0  0  0  0
 12 23  1  0  0  0  0
 13 16  2  0  0  0  0
 13 18  1  0  0  0  0
 14 19  1  0  0  0  0
 15 20  2  0  0  0  0
 16 17  1  0  0  0  0
 17 21  2  0  0  0  0
 18 22  2  0  0  0  0
 21 22  1  0  0  0  0
M  END
> <Value>
5.300000202445418

> <Relation>
<

> <SourceURI>
mol:CHEMBL1994724

$$$$

Generated by Molecular Materials Informatics

 29 32  0  0  0  0  0  0  0  0999 V2000
   -4.6828    1.5962    0.0000 Cl  0  0  0  0  0  0  0  0  0  0  0  0
    0.8758    9.7111    0.0000 O   0  0  0  0  0  0  0  0  0  0  0  0
   -0.2811    0.6608    0.0000 N   0  0  0  0  0  0  0  0  0  0  0  0
   -0.8213   -4.3076    0.0000 N   0  0  0  0  0  0  0  0  0  0  0  0
    1.9043   -4.5942    0.0000 N   0  0  0  0  0  0  0  0  0  0  0  0
   -2.2118    2.3991    0.0000 N   0  0  0  0  0  0  0  0  0  0  0  0
    0.2591    3.2020    0.0000 N   0  0  0  0  0  0  0  0  0  0  0  0
   -1.5951    8.9084    0.0000 N   0  0  0  0  0  0  0  0  0  0  0  0
   -0.0513   12.5644    0.0000 N   0  0  0  0  0  0  0  0  0  0  0  0
   -0.8213   -1.8807    0.0000 C   0  0  0  0  0  0  0  0  0  0  0  0
    0.6053   -2.3442    0.0000 C   0  0  0  0  0  0  0  0  0  0  0  0
   -1.2849   -0.4540    0.0000 C   0  0  0  0  0  0  0  0  0  0  0  0
    0.6053   -3.8442    0.0000 C   0  0  0  0  0  0  0  0  0  0  0  0
   -1.7029   -3.0942    0.0000 C   0  0  0  0  0  0  0  0  0  0  0  0
   -0.7448    2.0873    0.0000 C   0  0  0  0  0  0  0  0  0  0  0  0
   -2.7520   -0.1422    0.0000 C   0  0  0  0  0  0  0  0  0  0  0  0
    1.9043   -1.5942    0.0000 C   0  0  0  0  0  0  0  0  0  0  0  0
   -3.2157    1.2844    0.0000 C   0  0  0  0  0  0  0  0  0  0  0  0
   -0.2046    4.6286    0.0000 C   0  0  0  0  0  0  0  0  0  0  0  0
    3.2033   -2.3442    0.0000 C   0  0  0  0  0  0  0  0  0  0  0  0
    3.2033   -3.8442    0.0000 C   0  0  0  0  0  0  0  0  0  0  0  0
   -1.6717    4.9404    0.0000 C   0  0  0  0  0  0  0  0  0  0  0  0
    0.7993    5.7433    0.0000 C   0  0  0  0  0  0  0  0  0  0  0  0
   -1.1317    7.4817    0.0000 C   0  0  0  0  0  0  0  0  0  0  0  0
   -2.1353    6.3669    0.0000 C   0  0  0  0  0  0  0  0  0  0  0  0
    0.3356    7.1699    0.0000 C   0  0  0  0  0  0  0  0  0  0  0  0
   -0.5915   10.0231    0.0000 C   0  0  0  0  0  0  0  0  0  0  0  0
   -1.0549   11.4497    0.0000 C   0  0  0  0  0  0  0  0  0  0  0  0
   -0.5147   13.9910    0.0000 C   0  0  0  0  0  0  0  0  0  0  0  0
  1 18  1  0  0  0  0
  2 27  2  0  0  0  0
  3 12  2  0  0  0  0
  3 15  1  0  0  0  0
  4 13  1  0  0  0  0
  4 14  1  0  0  0  0
  5 13  2  0  0  0  0
  5 21  1  0  0  0  0
  6 15  2  0  0  0  0
  6 18  1  0  0  0  0
  7 15  1  0  0  0  0
  7 19  1  0  0  0  0
  8 24  1  0  0  0  0
  8 27  1  0  0  0  0
  9 28  1  0  0  0  0
  9 29  1  0  0  0  0
 10 11  1  0  0  0  0
 10 12  1  0  0  0  0
 10 14  2  0  0  0  0
 11 13  1  0  0  0  0
 11 17  2  0  0  0  0
 12 16  1  0  0  0  0
 16 18  2  0  0  0  0
 17 20  1  0  0  0  0
 19 22  1  0  0  0  0
 19 23  1  0  0  0  0
 20 21  2  0  0  0  0
 22 25  1  0  0  0  0
 23 26  1  0  0  0  0
 24 25  1  0  0  0  0
 24 26  1  0  0  0  0
 27 28  1  0  0  0  0
M  END
> <Value>
7.50003813440381

> <Relation>
=

> <SourceURI>
mol:CHEMBL1996980

$$$$

Generated by Molecular Materials Informatics

 23 26  0  0  0  0  0  0  0  0999 V2000
    4.8914    0.6888    0.0000 N   0  0  0  0  0  0  0  0  0  0  0  0
    2.6743   -0.2983    0.0000 N   0  0  0  0  0  0  0  0  0  0  0  0
    4.1414   -0.6103    0.0000 N   0  0  0  0  0  0  0  0  0  0  0  0
   -2.8063    3.9069    0.0000 N   0  0  0  0  0  0  0  0  0  0  0  0
   -3.6879    2.6933    0.0000 N   0  0  0  0  0  0  0  0  0  0  0  0
    1.2185    1.9433    0.0000 C   0  0  0  0  0  0  0  0  0  0  0  0
    2.5174    1.1933    0.0000 C   0  0  0  0  0  0  0  0  0  0  0  0
   -1.3797    1.9433    0.0000 C   0  0  0  0  0  0  0  0  0  0  0  0
   -1.3797    3.4433    0.0000 C   0  0  0  0  0  0  0  0  0  0  0  0
   -0.0806    1.1933    0.0000 C   0  0  0  0  0  0  0  0  0  0  0  0
    3.8877    1.8035    0.0000 C   0  0  0  0  0  0  0  0  0  0  0  0
    1.2185    3.4433    0.0000 C   0  0  0  0  0  0  0  0  0  0  0  0
   -0.0806    4.1933    0.0000 C   0  0  0  0  0  0  0  0  0  0  0  0
    7.2648   -0.3680    0.0000 C   0  0  0  0  0  0  0  0  0  0  0  0
    6.3832    0.8455    0.0000 C   0  0  0  0  0  0  0  0  0  0  0  0
   -2.8063    1.4799    0.0000 C   0  0  0  0  0  0  0  0  0  0  0  0
    8.7566   -0.2112    0.0000 C   0  0  0  0  0  0  0  0  0  0  0  0
    6.6548   -1.7383    0.0000 C   0  0  0  0  0  0  0  0  0  0  0  0
    9.6383   -1.4247    0.0000 C   0  0  0  0  0  0  0  0  0  0  0  0
    9.0283   -2.7951    0.0000 C   0  0  0  0  0  0  0  0  0  0  0  0
    7.5365   -2.9518    0.0000 C   0  0  0  0  0  0  0  0  0  0  0  0
    9.3668    1.1591    0.0000 C   0  0  0  0  0  0  0  0  0  0  0  0
    9.9099   -4.0085    0.0000 C   0  0  0  0  0  0  0  0  0  0  0  0
  1  3  1  0  0  0  0
  1 11  1  0  0  0  0
  1 15  1  0  0  0  0
  2  3  2  0  0  0  0
  2  7  1  0  0  0  0
  4  5  1  0  0  0  0
  4  9  1  0  0  0  0
  5 16  2  0  0  0  0
  6  7  1  0  0  0  0
  6 10  1  0  0  0  0
  6 12  2  0  0  0  0
  7 11  2  0  0  0  0
  8  9  1  0  0  0  0
  8 10  2  0  0  0  0
  8 16  1  0  0  0  0
  9 13  2  0  0  0  0
 12 13  1  0  0  0  0
 14 15  1  0  0  0  0
 14 17  1  0  0  0  0
 14 18  2  0  0  0  0
 17 19  2  0  0  0  0
 17 22  1  0  0  0  0
 18 21  1  0  0  0  0
 19 20  1  0  0  0  0
 20 21  2  0  0  0  0
 20 23  1  0  0  0  0
M  END
> <Value>
5.899998417198648

> <Relation>
<

> <SourceURI>
mol:CHEMBL1984432

$$$$

Generated by Molecular Materials Informatics

 26 29  0  0  0  0  0  0  0  0999 V2000
   -3.9162  -13.7497    0.0000 C   0  0  0  0  0  0  0  0  0  0  0  0
   -2.6136  -12.9983    0.0000 C   0  0  0  0  0  0  0  0  0  0  0  0
   -2.6189  -11.4883    0.0000 C   0  0  0  0  0  0  0  0  0  0  0  0
   -3.9195  -10.7447    0.0000 C   0  0  0  0  0  0  0  0  0  0  0  0
   -6.6465  -13.4625    0.0000 N   0  0  0  0  0  0  0  0  0  0  0  0
   -5.2158  -12.9990    0.0000 C   0  0  0  0  0  0  0  0  0  0  0  0
   -5.2163  -11.4939    0.0000 C   0  0  0  0  0  0  0  0  0  0  0  0
   -6.6490  -11.0319    0.0000 C   0  0  0  0  0  0  0  0  0  0  0  0
   -7.5291  -12.2528    0.0000 N   0  0  0  0  0  0  0  0  0  0  0  0
   -3.9275   -9.2510    0.0000 C   0  0  0  0  0  0  0  0  0  0  0  0
   -2.6273   -8.4992    0.0000 C   0  0  0  0  0  0  0  0  0  0  0  0
   -2.6300   -7.0007    0.0000 C   0  0  0  0  0  0  0  0  0  0  0  0
   -3.9317   -6.2521    0.0000 C   0  0  0  0  0  0  0  0  0  0  0  0
   -5.2332   -7.0132    0.0000 C   0  0  0  0  0  0  0  0  0  0  0  0
   -5.2240   -8.5090    0.0000 C   0  0  0  0  0  0  0  0  0  0  0  0
   -7.1167   -9.6067    0.0000 N   0  0  0  0  0  0  0  0  0  0  0  0
   -3.9370   -4.7523    0.0000 N   0  0  0  0  0  0  0  0  0  0  0  0
   -2.6407   -3.9980    0.0000 C   0  0  0  0  0  0  0  0  0  0  0  0
   -2.6462   -2.4980    0.0000 O   0  0  0  0  0  0  0  0  0  0  0  0
   -1.3392   -4.7431    0.0000 N   0  0  0  0  0  0  0  0  0  0  0  0
   -0.0429   -3.9885    0.0000 C   0  0  0  0  0  0  0  0  0  0  0  0
    1.2568   -4.7407    0.0000 C   0  0  0  0  0  0  0  0  0  0  0  0
    2.5520   -3.9874    0.0000 C   0  0  0  0  0  0  0  0  0  0  0  0
    2.5474   -2.4858    0.0000 C   0  0  0  0  0  0  0  0  0  0  0  0
    1.2368   -1.7411    0.0000 C   0  0  0  0  0  0  0  0  0  0  0  0
   -0.0531   -2.4985    0.0000 C   0  0  0  0  0  0  0  0  0  0  0  0
 12 13  2  0  0  0  0
  2  3  1  0  0  0  0
 13 14  1  0  0  0  0
 14 15  2  0  0  0  0
 15 10  1  0  0  0  0
  4 10  1  0  0  0  0
  3  4  2  0  0  0  0
  8 16  1  0  0  0  0
  5  6  1  0  0  0  0
 13 17  1  0  0  0  0
  7  8  1  0  0  0  0
 17 18  1  0  0  0  0
  8  9  2  0  0  0  0
 18 19  2  0  0  0  0
  9  5  1  0  0  0  0
 18 20  1  0  0  0  0
  4  7  1  0  0  0  0
 20 21  1  0  0  0  0
  6  7  2  0  0  0  0
 21 22  2  0  0  0  0
 10 11  2  0  0  0  0
 22 23  1  0  0  0  0
  1  2  2  0  0  0  0
 23 24  2  0  0  0  0
 11 12  1  0  0  0  0
 24 25  1  0  0  0  0
  6  1  1  0  0  0  0
 25 26  2  0  0  0  0
 26 21  1  0  0  0  0
M  END
> <Value>
5.899998417198648

> <Relation>
<

> <SourceURI>
mol:CHEMBL219722

$$$$

Generated by Molecular Materials Informatics

 24 26  0  0  0  0  0  0  0  0999 V2000
    0.4725  -10.7101    0.0000 Br  0  0  0  0  0  0  0  0  0  0  0  0
    6.7112   -8.7534    0.0000 O   0  0  0  0  0  0  0  0  0  0  0  0
    0.1339   -6.7560    0.0000 N   0  0  0  0  0  0  0  0  0  0  0  0
    2.2358   -8.2830    0.0000 N   0  0  0  0  0  0  0  0  0  0  0  0
   -1.9679   -5.2289    0.0000 N   0  0  0  0  0  0  0  0  0  0  0  0
   -2.2395   -7.8127    0.0000 N   0  0  0  0  0  0  0  0  0  0  0  0
   -0.3362   -1.7070    0.0000 N   0  0  0  0  0  0  0  0  0  0  0  0
    0.8772   -2.5887    0.0000 N   0  0  0  0  0  0  0  0  0  0  0  0
    4.6092   -7.2263    0.0000 N   0  0  0  0  0  0  0  0  0  0  0  0
    0.7439   -8.1263    0.0000 C   0  0  0  0  0  0  0  0  0  0  0  0
   -1.3579   -6.5992    0.0000 C   0  0  0  0  0  0  0  0  0  0  0  0
    2.8459   -9.6534    0.0000 C   0  0  0  0  0  0  0  0  0  0  0  0
   -0.1377   -9.3398    0.0000 C   0  0  0  0  0  0  0  0  0  0  0  0
    4.3378   -9.8101    0.0000 C   0  0  0  0  0  0  0  0  0  0  0  0
   -1.0862   -4.0154    0.0000 C   0  0  0  0  0  0  0  0  0  0  0  0
   -1.6295   -9.1830    0.0000 C   0  0  0  0  0  0  0  0  0  0  0  0
    1.9643  -10.8669    0.0000 C   0  0  0  0  0  0  0  0  0  0  0  0
   -1.5499   -2.5887    0.0000 C   0  0  0  0  0  0  0  0  0  0  0  0
    5.2194   -8.5967    0.0000 C   0  0  0  0  0  0  0  0  0  0  0  0
    0.4138   -4.0154    0.0000 C   0  0  0  0  0  0  0  0  0  0  0  0
    4.9478  -11.1805    0.0000 C   0  0  0  0  0  0  0  0  0  0  0  0
    2.5743  -12.2372    0.0000 C   0  0  0  0  0  0  0  0  0  0  0  0
    4.0661  -12.3940    0.0000 C   0  0  0  0  0  0  0  0  0  0  0  0
   -0.3362   -0.2070    0.0000 C   0  0  0  0  0  0  0  0  0  0  0  0
  1 13  1  0  0  0  0
  2 19  2  0  0  0  0
  3 10  2  0  0  0  0
  3 11  1  0  0  0  0
  4 10  1  0  0  0  0
  4 12  1  0  0  0  0
  5 11  1  0  0  0  0
  5 15  1  0  0  0  0
  6 11  2  0  0  0  0
  6 16  1  0  0  0  0
  7  8  1  0  0  0  0
  7 18  1  0  0  0  0
  7 24  1  0  0  0  0
  8 20  2  0  0  0  0
  9 19  1  0  0  0  0
 10 13  1  0  0  0  0
 12 14  1  0  0  0  0
 12 17  2  0  0  0  0
 13 16  2  0  0  0  0
 14 19  1  0  0  0  0
 14 21  2  0  0  0  0
 15 18  2  0  0  0  0
 15 20  1  0  0  0  0
 17 22  1  0  0  0  0
 21 23  1  0  0  0  0
 22 23  2  0  0  0  0
M  END
> <Value>
7.899974269892137

> <Relation>
=

> <SourceURI>
mol:CHEMBL1994669

$$$$

Generated by Molecular Materials Informatics

 23 26  0  0  0  0  0  0  0  0999 V2000
    3.9803    1.7261    0.0000 O   0  0  0  0  0  0  0  0  0  0  0  0
    3.9625   -3.2715    0.0000 O   0  0  0  0  0  0  0  0  0  0  0  0
    9.5909    0.0555    0.0000 O   0  0  0  0  0  0  0  0  0  0  0  0
    6.3359   -2.2148    0.0000 N   0  0  0  0  0  0  0  0  0  0  0  0
    4.9839    0.6114    0.0000 N   0  0  0  0  0  0  0  0  0  0  0  0
   -2.7136    3.8295    0.0000 N   0  0  0  0  0  0  0  0  0  0  0  0
   -3.5952    2.6158    0.0000 N   0  0  0  0  0  0  0  0  0  0  0  0
    2.6100    1.1159    0.0000 C   0  0  0  0  0  0  0  0  0  0  0  0
    4.2339   -0.6877    0.0000 C   0  0  0  0  0  0  0  0  0  0  0  0
    1.3111    1.8659    0.0000 C   0  0  0  0  0  0  0  0  0  0  0  0
    4.8441   -2.0579    0.0000 C   0  0  0  0  0  0  0  0  0  0  0  0
    2.7669   -0.3757    0.0000 C   0  0  0  0  0  0  0  0  0  0  0  0
   -1.2870    1.8659    0.0000 C   0  0  0  0  0  0  0  0  0  0  0  0
   -1.2870    3.3658    0.0000 C   0  0  0  0  0  0  0  0  0  0  0  0
    0.0120    1.1159    0.0000 C   0  0  0  0  0  0  0  0  0  0  0  0
    1.3111    3.3658    0.0000 C   0  0  0  0  0  0  0  0  0  0  0  0
    0.0120    4.1158    0.0000 C   0  0  0  0  0  0  0  0  0  0  0  0
   -2.7136    1.4024    0.0000 C   0  0  0  0  0  0  0  0  0  0  0  0
    7.2175   -1.0012    0.0000 C   0  0  0  0  0  0  0  0  0  0  0  0
    6.9458   -3.5851    0.0000 C   0  0  0  0  0  0  0  0  0  0  0  0
    8.7093   -1.1581    0.0000 C   0  0  0  0  0  0  0  0  0  0  0  0
    8.4376   -3.7418    0.0000 C   0  0  0  0  0  0  0  0  0  0  0  0
    9.3192   -2.5282    0.0000 C   0  0  0  0  0  0  0  0  0  0  0  0
  1  5  1  0  0  0  0
  1  8  1  0  0  0  0
  2 11  2  0  0  0  0
  3 21  1  0  0  0  0
  4 11  1  0  0  0  0
  4 19  1  0  0  0  0
  4 20  1  0  0  0  0
  5  9  2  0  0  0  0
  6  7  1  0  0  0  0
  6 14  1  0  0  0  0
  7 18  2  0  0  0  0
  8 10  1  0  0  0  0
  8 12  2  0  0  0  0
  9 11  1  0  0  0  0
  9 12  1  0  0  0  0
 10 15  1  0  0  0  0
 10 16  2  0  0  0  0
 13 14  1  0  0  0  0
 13 15  2  0  0  0  0
 13 18  1  0  0  0  0
 14 17  2  0  0  0  0
 16 17  1  0  0  0  0
 19 21  1  0  0  0  0
 20 22  1  0  0  0  0
 21 23  1  0  0  0  0
 22 23  1  0  0  0  0
M  END
> <Value>
5.899998417198648

> <Relation>
<

> <SourceURI>
mol:CHEMBL1997340

$$$$

Generated by Molecular Materials Informatics

 19 21  0  0  0  0  0  0  0  0999 V2000
    5.7667   -7.6536    0.0000 C   0  0  0  0  0  0  0  0  0  0  0  0
    4.4686   -8.4051    0.0000 C   0  0  0  0  0  0  0  0  0  0  0  0
    7.0648   -8.4051    0.0000 N   0  0  0  0  0  0  0  0  0  0  0  0
    5.7590   -6.1505    0.0000 N   0  0  0  0  0  0  0  0  0  0  0  0
    5.7667  -10.6598    0.0000 N   0  0  0  0  0  0  0  0  0  0  0  0
    7.0648   -9.9082    0.0000 C   0  0  0  0  0  0  0  0  0  0  0  0
    4.4686   -9.9082    0.0000 C   0  0  0  0  0  0  0  0  0  0  0  0
    7.0648   -5.3989    0.0000 C   0  0  0  0  0  0  0  0  0  0  0  0
    7.0421   -3.8958    0.0000 C   0  0  0  0  0  0  0  0  0  0  0  0
    8.3402   -3.1442    0.0000 C   0  0  0  0  0  0  0  0  0  0  0  0
    3.1704   -7.6536    0.0000 C   0  0  0  0  0  0  0  0  0  0  0  0
    8.3326   -1.6411    0.0000 O   0  0  0  0  0  0  0  0  0  0  0  0
    9.6611   -5.3989    0.0000 C   0  0  0  0  0  0  0  0  0  0  0  0
    8.3630   -6.1505    0.0000 C   0  0  0  0  0  0  0  0  0  0  0  0
    9.6535   -3.8881    0.0000 C   0  0  0  0  0  0  0  0  0  0  0  0
    3.1704  -10.6598    0.0000 C   0  0  0  0  0  0  0  0  0  0  0  0
    9.6307   -0.8819    0.0000 C   0  0  0  0  0  0  0  0  0  0  0  0
    1.8723   -8.4051    0.0000 C   0  0  0  0  0  0  0  0  0  0  0  0
    1.8723   -9.9082    0.0000 C   0  0  0  0  0  0  0  0  0  0  0  0
  2  1  1  0  0  0  0
  3  1  2  0  0  0  0
  4  1  1  0  0  0  0
  5  6  2  0  0  0  0
  6  3  1  0  0  0  0
  7  2  1  0  0  0  0
  8  4  1  0  0  0  0
  9  8  1  0  0  0  0
 10  9  2  0  0  0  0
 11  2  2  0  0  0  0
 12 10  1  0  0  0  0
 13 14  1  0  0  0  0
 14  8  2  0  0  0  0
 15 13  2  0  0  0  0
 16  7  2  0  0  0  0
 17 12  1  0  0  0  0
 18 11  1  0  0  0  0
 19 18  2  0  0  0  0
  7  5  1  0  0  0  0
 16 19  1  0  0  0  0
 10 15  1  0  0  0  0
M  END
> <Value>
4.900000142057633

> <Relation>
<

> <SourceURI>
mol:CHEMBL117697

$$$$

Generated by Molecular Materials Informatics

 26 29  0  0  0  0  0  0  0  0999 V2000
   -8.2086  -18.7177    0.0000 C   0  0  0  0  0  0  0  0  0  0  0  0
   -8.2110  -20.2224    0.0000 C   0  0  0  0  0  0  0  0  0  0  0  0
   -6.9146  -20.9729    0.0000 N   0  0  0  0  0  0  0  0  0  0  0  0
   -5.6068  -20.2215    0.0000 C   0  0  0  0  0  0  0  0  0  0  0  0
   -5.6127  -18.7105    0.0000 N   0  0  0  0  0  0  0  0  0  0  0  0
   -6.9183  -17.9670    0.0000 C   0  0  0  0  0  0  0  0  0  0  0  0
   -4.3071  -20.9702    0.0000 N   0  0  0  0  0  0  0  0  0  0  0  0
   -3.0089  -20.2190    0.0000 C   0  0  0  0  0  0  0  0  0  0  0  0
   -1.7137  -20.9768    0.0000 C   0  0  0  0  0  0  0  0  0  0  0  0
   -0.4161  -20.2268    0.0000 C   0  0  0  0  0  0  0  0  0  0  0  0
   -0.4166  -18.7254    0.0000 C   0  0  0  0  0  0  0  0  0  0  0  0
   -1.7253  -17.9768    0.0000 C   0  0  0  0  0  0  0  0  0  0  0  0
   -3.0175  -18.7310    0.0000 C   0  0  0  0  0  0  0  0  0  0  0  0
   -6.9254  -16.4672    0.0000 C   0  0  0  0  0  0  0  0  0  0  0  0
   -5.7134  -15.5787    0.0000 S   0  0  0  0  0  0  0  0  0  0  0  0
   -6.1832  -14.1538    0.0000 C   0  0  0  0  0  0  0  0  0  0  0  0
   -7.6835  -14.1615    0.0000 N   0  0  0  0  0  0  0  0  0  0  0  0
   -8.1402  -15.5902    0.0000 C   0  0  0  0  0  0  0  0  0  0  0  0
   -9.4473  -16.3262    0.0000 C   0  0  0  0  0  0  0  0  0  0  0  0
   -5.3072  -12.9362    0.0000 N   0  0  0  0  0  0  0  0  0  0  0  0
    0.8806  -17.9725    0.0000 N   0  0  0  0  0  0  0  0  0  0  0  0
    2.1753  -18.7241    0.0000 C   0  0  0  0  0  0  0  0  0  0  0  0
    3.4685  -17.9777    0.0000 C   0  0  0  0  0  0  0  0  0  0  0  0
    3.4731  -16.4769    0.0000 O   0  0  0  0  0  0  0  0  0  0  0  0
    2.1726  -15.7260    0.0000 C   0  0  0  0  0  0  0  0  0  0  0  0
    0.8679  -16.4756    0.0000 C   0  0  0  0  0  0  0  0  0  0  0  0
 12 13  2  0  0  0  0
 13  8  1  0  0  0  0
  1  2  2  0  0  0  0
  6 14  1  0  0  0  0
 14 15  1  0  0  0  0
  4  7  1  0  0  0  0
  3  4  2  0  0  0  0
  7  8  1  0  0  0  0
 15 16  1  0  0  0  0
 16 17  2  0  0  0  0
 17 18  1  0  0  0  0
 18 14  2  0  0  0  0
  8  9  2  0  0  0  0
 18 19  1  0  0  0  0
  4  5  1  0  0  0  0
 16 20  1  0  0  0  0
  9 10  1  0  0  0  0
 11 21  1  0  0  0  0
 21 22  1  0  0  0  0
  2  3  1  0  0  0  0
 10 11  2  0  0  0  0
  5  6  2  0  0  0  0
 11 12  1  0  0  0  0
  6  1  1  0  0  0  0
 21 26  1  0  0  0  0
 22 23  1  0  0  0  0
 23 24  1  0  0  0  0
 24 25  1  0  0  0  0
 25 26  1  0  0  0  0
M  END
> <Value>
6.900008766455316

> <Relation>
=

> <SourceURI>
mol:CHEMBL482967

$$$$

Generated by Molecular Materials Informatics

 19 21  0  0  0  0  0  0  0  0999 V2000
    1.5834    4.2049    0.0000 F   0  0  0  0  0  0  0  0  0  0  0  0
    2.7968   -2.6767    0.0000 N   0  0  0  0  0  0  0  0  0  0  0  0
    2.3334   -4.1033    0.0000 N   0  0  0  0  0  0  0  0  0  0  0  0
   -1.3686   -0.7460    0.0000 N   0  0  0  0  0  0  0  0  0  0  0  0
   -3.9099   -1.2862    0.0000 N   0  0  0  0  0  0  0  0  0  0  0  0
    1.5834   -1.7951    0.0000 C   0  0  0  0  0  0  0  0  0  0  0  0
    0.3697   -2.6767    0.0000 C   0  0  0  0  0  0  0  0  0  0  0  0
    1.5834   -0.2951    0.0000 C   0  0  0  0  0  0  0  0  0  0  0  0
   -1.0568   -2.2133    0.0000 C   0  0  0  0  0  0  0  0  0  0  0  0
    0.8334   -4.1033    0.0000 C   0  0  0  0  0  0  0  0  0  0  0  0
    0.2843    0.4549    0.0000 C   0  0  0  0  0  0  0  0  0  0  0  0
    2.8823    0.4549    0.0000 C   0  0  0  0  0  0  0  0  0  0  0  0
   -2.1715   -3.2169    0.0000 C   0  0  0  0  0  0  0  0  0  0  0  0
    0.2843    1.9549    0.0000 C   0  0  0  0  0  0  0  0  0  0  0  0
    2.8823    1.9549    0.0000 C   0  0  0  0  0  0  0  0  0  0  0  0
    1.5834    2.7049    0.0000 C   0  0  0  0  0  0  0  0  0  0  0  0
    3.2150   -5.3169    0.0000 C   0  0  0  0  0  0  0  0  0  0  0  0
   -2.7952   -0.2825    0.0000 C   0  0  0  0  0  0  0  0  0  0  0  0
   -3.5981   -2.7535    0.0000 C   0  0  0  0  0  0  0  0  0  0  0  0
  1 16  1  0  0  0  0
  2  3  1  0  0  0  0
  2  6  2  0  0  0  0
  3 10  1  0  0  0  0
  3 17  1  0  0  0  0
  4  9  1  0  0  0  0
  4 18  2  0  0  0  0
  5 18  1  0  0  0  0
  5 19  2  0  0  0  0
  6  7  1  0  0  0  0
  6  8  1  0  0  0  0
  7  9  1  0  0  0  0
  7 10  2  0  0  0  0
  8 11  2  0  0  0  0
  8 12  1  0  0  0  0
  9 13  2  0  0  0  0
 11 14  1  0  0  0  0
 12 15  2  0  0  0  0
 13 19  1  0  0  0  0
 14 16  2  0  0  0  0
 15 16  1  0  0  0  0
M  END
> <Value>
5.899998417198648

> <Relation>
<

> <SourceURI>
mol:CHEMBL1989474

$$$$

Generated by Molecular Materials Informatics

 43 49  0  0  0  0  0  0  0  0999 V2000
    3.1346   -1.3353    0.0000 C   0  0  0  0  0  0  0  0  0  0  0  0
    3.0871   -2.8393    0.0000 C   0  0  0  0  0  0  0  0  0  0  0  0
    4.3640   -3.6291    0.0000 C   0  0  0  0  0  0  0  0  0  0  0  0
    5.6892   -2.9167    0.0000 C   0  0  0  0  0  0  0  0  0  0  0  0
    5.7293   -1.4067    0.0000 C   0  0  0  0  0  0  0  0  0  0  0  0
    4.4512   -0.6238    0.0000 C   0  0  0  0  0  0  0  0  0  0  0  0
    6.9677   -3.6993    0.0000 C   0  0  0  0  0  0  0  0  0  0  0  0
    7.0016   -5.2004    0.0000 C   0  0  0  0  0  0  0  0  0  0  0  0
    8.3832   -3.2030    0.0000 N   0  0  0  0  0  0  0  0  0  0  0  0
    9.2933   -4.3959    0.0000 C   0  0  0  0  0  0  0  0  0  0  0  0
    8.4440   -5.6287    0.0000 N   0  0  0  0  0  0  0  0  0  0  0  0
    9.3542   -6.8178    0.0000 C   0  0  0  0  0  0  0  0  0  0  0  0
   10.7660   -6.3195    0.0000 C   0  0  0  0  0  0  0  0  0  0  0  0
   10.7284   -4.8228    0.0000 S   0  0  0  0  0  0  0  0  0  0  0  0
    5.7186   -5.9735    0.0000 C   0  0  0  0  0  0  0  0  0  0  0  0
    4.4056   -5.2431    0.0000 C   0  0  0  0  0  0  0  0  0  0  0  0
    3.1204   -6.0149    0.0000 C   0  0  0  0  0  0  0  0  0  0  0  0
    5.7473   -7.4673    0.0000 N   0  0  0  0  0  0  0  0  0  0  0  0
    4.4677   -8.2433    0.0000 C   0  0  0  0  0  0  0  0  0  0  0  0
    3.1391   -7.5182    0.0000 N   0  0  0  0  0  0  0  0  0  0  0  0
    4.5023   -9.7430    0.0000 N   0  0  0  0  0  0  0  0  0  0  0  0
    3.2165  -10.5166    0.0000 C   0  0  0  0  0  0  0  0  0  0  0  0
    1.9124   -9.7851    0.0000 C   0  0  0  0  0  0  0  0  0  0  0  0
    0.6276  -10.5571    0.0000 C   0  0  0  0  0  0  0  0  0  0  0  0
    3.2549  -12.0090    0.0000 C   0  0  0  0  0  0  0  0  0  0  0  0
    1.9753  -12.7854    0.0000 C   0  0  0  0  0  0  0  0  0  0  0  0
    0.6615  -12.0571    0.0000 C   0  0  0  0  0  0  0  0  0  0  0  0
    2.0047  -14.2856    0.0000 N   0  0  0  0  0  0  0  0  0  0  0  0
    0.7166  -15.0497    0.0000 C   0  0  0  0  0  0  0  0  0  0  0  0
    0.7424  -16.5434    0.0000 C   0  0  0  0  0  0  0  0  0  0  0  0
    2.0533  -17.2750    0.0000 O   0  0  0  0  0  0  0  0  0  0  0  0
    3.3410  -16.5016    0.0000 C   0  0  0  0  0  0  0  0  0  0  0  0
    3.3181  -14.9967    0.0000 C   0  0  0  0  0  0  0  0  0  0  0  0
    4.4899    0.8068    0.0000 N   0  0  0  0  0  0  0  0  0  0  0  0
    3.2263    1.6160    0.0000 C   0  0  0  0  0  0  0  0  0  0  0  0
    1.8937    0.9263    0.0000 O   0  0  0  0  0  0  0  0  0  0  0  0
    3.2954    3.1148    0.0000 C   0  0  0  0  0  0  0  0  0  0  0  0
    4.6279    3.8046    0.0000 C   0  0  0  0  0  0  0  0  0  0  0  0
    5.8889    2.9937    0.0000 C   0  0  0  0  0  0  0  0  0  0  0  0
    7.2204    3.6823    0.0000 C   0  0  0  0  0  0  0  0  0  0  0  0
    7.2904    5.1827    0.0000 C   0  0  0  0  0  0  0  0  0  0  0  0
    6.0176    5.9919    0.0000 C   0  0  0  0  0  0  0  0  0  0  0  0
    4.6911    5.2988    0.0000 C   0  0  0  0  0  0  0  0  0  0  0  0
 22 23  2  0  0  0  0
  7  8  2  0  0  0  0
 23 24  1  0  0  0  0
 24 27  2  0  0  0  0
 11 12  1  0  0  0  0
 26 25  2  0  0  0  0
 25 22  1  0  0  0  0
 26 27  1  0  0  0  0
 12 13  2  0  0  0  0
 13 14  1  0  0  0  0
 14 10  1  0  0  0  0
  1  2  2  0  0  0  0
  3  4  2  0  0  0  0
 15 16  2  0  0  0  0
 16 17  1  0  0  0  0
 17 20  2  0  0  0  0
  8 11  1  0  0  0  0
 26 28  1  0  0  0  0
 28 29  1  0  0  0  0
 19 18  2  0  0  0  0
 18 15  1  0  0  0  0
  8 15  1  0  0  0  0
 19 20  1  0  0  0  0
 10  9  2  0  0  0  0
 28 33  1  0  0  0  0
 29 30  1  0  0  0  0
 30 31  1  0  0  0  0
 31 32  1  0  0  0  0
 32 33  1  0  0  0  0
  6 34  1  0  0  0  0
  9  7  1  0  0  0  0
  4  7  1  0  0  0  0
 10 11  1  0  0  0  0
  4  5  1  0  0  0  0
  2  3  1  0  0  0  0
 19 21  1  0  0  0  0
  5  6  2  0  0  0  0
 21 22  1  0  0  0  0
  6  1  1  0  0  0  0
 34 35  1  0  0  0  0
 35 36  2  0  0  0  0
 35 37  1  0  0  0  0
 37 38  1  0  0  0  0
 38 39  2  0  0  0  0
 39 40  1  0  0  0  0
 40 41  2  0  0  0  0
 41 42  1  0  0  0  0
 42 43  2  0  0  0  0
 43 38  1  0  0  0  0
M  END
> <Value>
5.899998417198648

> <Relation>
<

> <SourceURI>
mol:CHEMBL1090360

$$$$

Generated by Molecular Materials Informatics

 30 33  0  0  0  0  0  0  0  0999 V2000
   10.8905   -3.1976    0.0000 F   0  0  0  0  0  0  0  0  0  0  0  0
   12.3905   -1.6976    0.0000 F   0  0  0  0  0  0  0  0  0  0  0  0
    9.3905   -1.6976    0.0000 F   0  0  0  0  0  0  0  0  0  0  0  0
    6.9934    0.5524    0.0000 O   0  0  0  0  0  0  0  0  0  0  0  0
   -3.5264    0.2658    0.0000 N   0  0  0  0  0  0  0  0  0  0  0  0
   -4.4081   -0.9476    0.0000 N   0  0  0  0  0  0  0  0  0  0  0  0
    8.2925    2.8024    0.0000 N   0  0  0  0  0  0  0  0  0  0  0  0
    5.6943    2.8024    0.0000 N   0  0  0  0  0  0  0  0  0  0  0  0
   -3.9899   -3.5878    0.0000 N   0  0  0  0  0  0  0  0  0  0  0  0
   -2.0999   -1.6976    0.0000 C   0  0  0  0  0  0  0  0  0  0  0  0
   -2.0999   -0.1976    0.0000 C   0  0  0  0  0  0  0  0  0  0  0  0
    0.4983   -0.1976    0.0000 C   0  0  0  0  0  0  0  0  0  0  0  0
   -3.5264   -2.1612    0.0000 C   0  0  0  0  0  0  0  0  0  0  0  0
   -0.8008    0.5524    0.0000 C   0  0  0  0  0  0  0  0  0  0  0  0
    1.7972    0.5524    0.0000 C   0  0  0  0  0  0  0  0  0  0  0  0
   -0.8008   -2.4476    0.0000 C   0  0  0  0  0  0  0  0  0  0  0  0
    0.4983   -1.6976    0.0000 C   0  0  0  0  0  0  0  0  0  0  0  0
   10.8905   -0.1976    0.0000 C   0  0  0  0  0  0  0  0  0  0  0  0
   10.8905   -1.6976    0.0000 C   0  0  0  0  0  0  0  0  0  0  0  0
    9.5916    2.0524    0.0000 C   0  0  0  0  0  0  0  0  0  0  0  0
    1.7972    2.0524    0.0000 C   0  0  0  0  0  0  0  0  0  0  0  0
    3.0963   -0.1976    0.0000 C   0  0  0  0  0  0  0  0  0  0  0  0
    4.3954    2.0524    0.0000 C   0  0  0  0  0  0  0  0  0  0  0  0
    9.5916    0.5524    0.0000 C   0  0  0  0  0  0  0  0  0  0  0  0
    3.0963    2.8024    0.0000 C   0  0  0  0  0  0  0  0  0  0  0  0
    4.3954    0.5524    0.0000 C   0  0  0  0  0  0  0  0  0  0  0  0
   12.1896    0.5524    0.0000 C   0  0  0  0  0  0  0  0  0  0  0  0
    6.9934    2.0524    0.0000 C   0  0  0  0  0  0  0  0  0  0  0  0
   10.8905    2.8024    0.0000 C   0  0  0  0  0  0  0  0  0  0  0  0
   12.1896    2.0524    0.0000 C   0  0  0  0  0  0  0  0  0  0  0  0
  1 19  1  0  0  0  0
  2 19  1  0  0  0  0
  3 19  1  0  0  0  0
  4 28  2  0  0  0  0
  5  6  1  0  0  0  0
  5 11  1  0  0  0  0
  6 13  2  0  0  0  0
  7 20  1  0  0  0  0
  7 28  1  0  0  0  0
  8 23  1  0  0  0  0
  8 28  1  0  0  0  0
  9 13  1  0  0  0  0
 10 11  1  0  0  0  0
 10 13  1  0  0  0  0
 10 16  2  0  0  0  0
 11 14  2  0  0  0  0
 12 14  1  0  0  0  0
 12 15  1  0  0  0  0
 12 17  2  0  0  0  0
 15 21  2  0  0  0  0
 15 22  1  0  0  0  0
 16 17  1  0  0  0  0
 18 19  1  0  0  0  0
 18 24  2  0  0  0  0
 18 27  1  0  0  0  0
 20 24  1  0  0  0  0
 20 29  2  0  0  0  0
 21 25  1  0  0  0  0
 22 26  2  0  0  0  0
 23 25  2  0  0  0  0
 23 26  1  0  0  0  0
 27 30  2  0  0  0  0
 29 30  1  0  0  0  0
M  END
> <Value>
5.899998417198648

> <Relation>
<

> <SourceURI>
mol:CHEMBL1997623

$$$$

Generated by Molecular Materials Informatics

 32 36  0  0  0  0  0  0  0  0999 V2000
    4.1183   -6.6739    0.0000 Cl  0  0  0  0  0  0  0  0  0  0  0  0
   -1.2054   -6.3874    0.0000 O   0  0  0  0  0  0  0  0  0  0  0  0
  -10.3372    1.3213    0.0000 O   0  0  0  0  0  0  0  0  0  0  0  0
   -5.8954    5.2022    0.0000 O   0  0  0  0  0  0  0  0  0  0  0  0
   -4.2132    3.1250    0.0000 N   0  0  0  0  0  0  0  0  0  0  0  0
   -1.2054   -3.9603    0.0000 N   0  0  0  0  0  0  0  0  0  0  0  0
   -3.5872   -5.1739    0.0000 N   0  0  0  0  0  0  0  0  0  0  0  0
  -14.8372    3.9193    0.0000 N   0  0  0  0  0  0  0  0  0  0  0  0
   -5.8372    1.3213    0.0000 C   0  0  0  0  0  0  0  0  0  0  0  0
   -6.5872    0.0222    0.0000 C   0  0  0  0  0  0  0  0  0  0  0  0
   -6.5872    2.6202    0.0000 C   0  0  0  0  0  0  0  0  0  0  0  0
   -5.8372   -1.2768    0.0000 C   0  0  0  0  0  0  0  0  0  0  0  0
   -5.5834    3.7350    0.0000 C   0  0  0  0  0  0  0  0  0  0  0  0
   -8.0872    0.0222    0.0000 C   0  0  0  0  0  0  0  0  0  0  0  0
   -8.8372    1.3213    0.0000 C   0  0  0  0  0  0  0  0  0  0  0  0
   -8.0872    2.6202    0.0000 C   0  0  0  0  0  0  0  0  0  0  0  0
   -4.3699    1.6331    0.0000 C   0  0  0  0  0  0  0  0  0  0  0  0
    0.2212   -5.9239    0.0000 C   0  0  0  0  0  0  0  0  0  0  0  0
    0.2212   -4.4239    0.0000 C   0  0  0  0  0  0  0  0  0  0  0  0
   -2.0872   -5.1739    0.0000 C   0  0  0  0  0  0  0  0  0  0  0  0
   -4.3372   -3.8748    0.0000 C   0  0  0  0  0  0  0  0  0  0  0  0
   -4.3372   -1.2768    0.0000 C   0  0  0  0  0  0  0  0  0  0  0  0
   -6.5872   -2.5758    0.0000 C   0  0  0  0  0  0  0  0  0  0  0  0
    1.5201   -6.6739    0.0000 C   0  0  0  0  0  0  0  0  0  0  0  0
   -3.5872   -2.5758    0.0000 C   0  0  0  0  0  0  0  0  0  0  0  0
   -5.8372   -3.8748    0.0000 C   0  0  0  0  0  0  0  0  0  0  0  0
    1.5201   -3.6739    0.0000 C   0  0  0  0  0  0  0  0  0  0  0  0
    2.8192   -5.9239    0.0000 C   0  0  0  0  0  0  0  0  0  0  0  0
    2.8192   -4.4239    0.0000 C   0  0  0  0  0  0  0  0  0  0  0  0
  -11.0872    2.6202    0.0000 C   0  0  0  0  0  0  0  0  0  0  0  0
  -12.5872    2.6202    0.0000 C   0  0  0  0  0  0  0  0  0  0  0  0
  -13.3372    3.9193    0.0000 C   0  0  0  0  0  0  0  0  0  0  0  0
  1 28  1  0  0  0  0
  2 18  1  0  0  0  0
  2 20  1  0  0  0  0
  3 15  1  0  0  0  0
  3 30  1  0  0  0  0
  4 13  2  0  0  0  0
  5 13  1  0  0  0  0
  5 17  1  0  0  0  0
  6 19  1  0  0  0  0
  6 20  2  0  0  0  0
  7 20  1  0  0  0  0
  7 21  1  0  0  0  0
  8 32  1  0  0  0  0
  9 10  1  0  0  0  0
  9 11  2  0  0  0  0
  9 17  1  0  0  0  0
 10 12  1  0  0  0  0
 10 14  2  0  0  0  0
 11 13  1  0  0  0  0
 11 16  1  0  0  0  0
 12 22  2  0  0  0  0
 12 23  1  0  0  0  0
 14 15  1  0  0  0  0
 15 16  2  0  0  0  0
 18 19  1  0  0  0  0
 18 24  2  0  0  0  0
 19 27  2  0  0  0  0
 21 25  2  0  0  0  0
 21 26  1  0  0  0  0
 22 25  1  0  0  0  0
 23 26  2  0  0  0  0
 24 28  1  0  0  0  0
 27 29  1  0  0  0  0
 28 29  2  0  0  0  0
 30 31  1  0  0  0  0
 31 32  1  0  0  0  0
M  END
> <Value>
6.299997602857746

> <Relation>
=

> <SourceURI>
mol:CHEMBL2002479

$$$$

Generated by Molecular Materials Informatics

 56 57  0  0  0  0  0  0  0  0999 V2000
    4.2218    8.1000    0.0000 O   0  0  0  0  0  0  0  0  0  0  0  0
   17.2122    8.1000    0.0000 O   0  0  0  0  0  0  0  0  0  0  0  0
    2.9227   10.3500    0.0000 N   0  0  0  0  0  0  0  0  0  0  0  0
   18.5113   10.3500    0.0000 N   0  0  0  0  0  0  0  0  0  0  0  0
   -0.9744    5.1000    0.0000 N   0  0  0  0  0  0  0  0  0  0  0  0
   25.0064    9.6000    0.0000 N   0  0  0  0  0  0  0  0  0  0  0  0
   -3.5724    9.6000    0.0000 N   0  0  0  0  0  0  0  0  0  0  0  0
   22.4084    5.1000    0.0000 N   0  0  0  0  0  0  0  0  0  0  0  0
   -0.9744    3.6000    0.0000 N   0  0  0  0  0  0  0  0  0  0  0  0
   26.3055   10.3500    0.0000 N   0  0  0  0  0  0  0  0  0  0  0  0
   -4.8714   10.3500    0.0000 N   0  0  0  0  0  0  0  0  0  0  0  0
   22.4084    3.6000    0.0000 N   0  0  0  0  0  0  0  0  0  0  0  0
    5.5209   10.3500    0.0000 N   0  0  0  0  0  0  0  0  0  0  0  0
   15.9131   10.3500    0.0000 N   0  0  0  0  0  0  0  0  0  0  0  0
   -2.2733    1.3500    0.0000 N   0  0  0  0  0  0  0  0  0  0  0  0
   28.9036   10.3500    0.0000 N   0  0  0  0  0  0  0  0  0  0  0  0
   -6.1705    8.1000    0.0000 N   0  0  0  0  0  0  0  0  0  0  0  0
   25.0064    3.6000    0.0000 N   0  0  0  0  0  0  0  0  0  0  0  0
   -3.5724    3.6000    0.0000 N   0  0  0  0  0  0  0  0  0  0  0  0
   27.6045    8.1000    0.0000 N   0  0  0  0  0  0  0  0  0  0  0  0
   -7.4694   10.3500    0.0000 N   0  0  0  0  0  0  0  0  0  0  0  0
   23.7075    1.3500    0.0000 N   0  0  0  0  0  0  0  0  0  0  0  0
   10.7171   10.3500    0.0000 N   0  0  0  0  0  0  0  0  0  0  0  0
    0.3247    7.3500    0.0000 C   0  0  0  0  0  0  0  0  0  0  0  0
   22.4084    9.6000    0.0000 C   0  0  0  0  0  0  0  0  0  0  0  0
   -0.9744    9.6000    0.0000 C   0  0  0  0  0  0  0  0  0  0  0  0
   21.1093    7.3500    0.0000 C   0  0  0  0  0  0  0  0  0  0  0  0
    1.6238    9.6000    0.0000 C   0  0  0  0  0  0  0  0  0  0  0  0
   19.8104    9.6000    0.0000 C   0  0  0  0  0  0  0  0  0  0  0  0
   -0.9744    8.1000    0.0000 C   0  0  0  0  0  0  0  0  0  0  0  0
   22.4084    8.1000    0.0000 C   0  0  0  0  0  0  0  0  0  0  0  0
    1.6238    8.1000    0.0000 C   0  0  0  0  0  0  0  0  0  0  0  0
   21.1093   10.3500    0.0000 C   0  0  0  0  0  0  0  0  0  0  0  0
    0.3247   10.3500    0.0000 C   0  0  0  0  0  0  0  0  0  0  0  0
   19.8104    8.1000    0.0000 C   0  0  0  0  0  0  0  0  0  0  0  0
    0.3247    5.8500    0.0000 C   0  0  0  0  0  0  0  0  0  0  0  0
   23.7075   10.3500    0.0000 C   0  0  0  0  0  0  0  0  0  0  0  0
   -2.2733   10.3500    0.0000 C   0  0  0  0  0  0  0  0  0  0  0  0
   21.1093    5.8500    0.0000 C   0  0  0  0  0  0  0  0  0  0  0  0
    4.2218    9.6000    0.0000 C   0  0  0  0  0  0  0  0  0  0  0  0
   17.2122    9.6000    0.0000 C   0  0  0  0  0  0  0  0  0  0  0  0
    1.6238    5.1000    0.0000 C   0  0  0  0  0  0  0  0  0  0  0  0
   23.7075   11.8500    0.0000 C   0  0  0  0  0  0  0  0  0  0  0  0
   -2.2733   11.8500    0.0000 C   0  0  0  0  0  0  0  0  0  0  0  0
   19.8104    5.1000    0.0000 C   0  0  0  0  0  0  0  0  0  0  0  0
   -2.2733    2.8500    0.0000 C   0  0  0  0  0  0  0  0  0  0  0  0
   27.6045    9.6000    0.0000 C   0  0  0  0  0  0  0  0  0  0  0  0
   -6.1705    9.6000    0.0000 C   0  0  0  0  0  0  0  0  0  0  0  0
   23.7075    2.8500    0.0000 C   0  0  0  0  0  0  0  0  0  0  0  0
    6.8200    9.6000    0.0000 C   0  0  0  0  0  0  0  0  0  0  0  0
   14.6142    9.6000    0.0000 C   0  0  0  0  0  0  0  0  0  0  0  0
    8.1189   10.3500    0.0000 C   0  0  0  0  0  0  0  0  0  0  0  0
   13.3151   10.3500    0.0000 C   0  0  0  0  0  0  0  0  0  0  0  0
    9.4180    9.6000    0.0000 C   0  0  0  0  0  0  0  0  0  0  0  0
   12.0160    9.6000    0.0000 C   0  0  0  0  0  0  0  0  0  0  0  0
   10.7171   11.8500    0.0000 C   0  0  0  0  0  0  0  0  0  0  0  0
  1 40  2  0  0  0  0
  2 41  2  0  0  0  0
  3 28  1  0  0  0  0
  3 40  1  0  0  0  0
  4 29  1  0  0  0  0
  4 41  1  0  0  0  0
  5  9  1  0  0  0  0
  5 36  2  0  0  0  0
  6 10  1  0  0  0  0
  6 37  2  0  0  0  0
  7 11  1  0  0  0  0
  7 38  2  0  0  0  0
  8 12  1  0  0  0  0
  8 39  2  0  0  0  0
  9 46  1  0  0  0  0
 10 47  1  0  0  0  0
 11 48  1  0  0  0  0
 12 49  1  0  0  0  0
 13 40  1  0  0  0  0
 13 50  1  0  0  0  0
 14 41  1  0  0  0  0
 14 51  1  0  0  0  0
 15 46  2  0  0  0  0
 16 47  2  0  0  0  0
 17 48  2  0  0  0  0
 18 49  2  0  0  0  0
 19 46  1  0  0  0  0
 20 47  1  0  0  0  0
 21 48  1  0  0  0  0
 22 49  1  0  0  0  0
 23 54  1  0  0  0  0
 23 55  1  0  0  0  0
 23 56  1  0  0  0  0
 24 30  2  0  0  0  0
 24 32  1  0  0  0  0
 24 36  1  0  0  0  0
 25 31  2  0  0  0  0
 25 33  1  0  0  0  0
 25 37  1  0  0  0  0
 26 30  1  0  0  0  0
 26 34  2  0  0  0  0
 26 38  1  0  0  0  0
 27 31  1  0  0  0  0
 27 35  2  0  0  0  0
 27 39  1  0  0  0  0
 28 32  2  0  0  0  0
 28 34  1  0  0  0  0
 29 33  2  0  0  0  0
 29 35  1  0  0  0  0
 36 42  1  0  0  0  0
 37 43  1  0  0  0  0
 38 44  1  0  0  0  0
 39 45  1  0  0  0  0
 50 52  1  0  0  0  0
 51 53  1  0  0  0  0
 52 54  1  0  0  0  0
 53 55  1  0  0  0  0
M  END
> <Value>
6.599997654072044

> <Relation>
=

> <SourceURI>
mol:CHEMBL1993166

$$$$

Generated by Molecular Materials Informatics

 25 28  0  0  0  0  0  0  0  0999 V2000
   -5.8257    7.3497    0.0000 Cl  0  0  0  0  0  0  0  0  0  0  0  0
    1.8059    2.0681    0.0000 S   0  0  0  0  0  0  0  0  0  0  0  0
   -1.3257   -0.4445    0.0000 O   0  0  0  0  0  0  0  0  0  0  0  0
    4.6592    2.0681    0.0000 N   0  0  0  0  0  0  0  0  0  0  0  0
    5.5408    0.8545    0.0000 N   0  0  0  0  0  0  0  0  0  0  0  0
   -1.3257    2.1535    0.0000 N   0  0  0  0  0  0  0  0  0  0  0  0
    3.2327    0.1045    0.0000 C   0  0  0  0  0  0  0  0  0  0  0  0
    3.2327    1.6045    0.0000 C   0  0  0  0  0  0  0  0  0  0  0  0
    4.6592   -0.3590    0.0000 C   0  0  0  0  0  0  0  0  0  0  0  0
    0.9243    0.8545    0.0000 C   0  0  0  0  0  0  0  0  0  0  0  0
    1.8059   -0.3590    0.0000 C   0  0  0  0  0  0  0  0  0  0  0  0
    5.1227   -1.7855    0.0000 C   0  0  0  0  0  0  0  0  0  0  0  0
   -0.5757    0.8545    0.0000 C   0  0  0  0  0  0  0  0  0  0  0  0
    6.5899   -2.0974    0.0000 C   0  0  0  0  0  0  0  0  0  0  0  0
    4.1190   -2.9003    0.0000 C   0  0  0  0  0  0  0  0  0  0  0  0
   -2.8257    2.1535    0.0000 C   0  0  0  0  0  0  0  0  0  0  0  0
    7.0534   -3.5241    0.0000 C   0  0  0  0  0  0  0  0  0  0  0  0
    4.5825   -4.3268    0.0000 C   0  0  0  0  0  0  0  0  0  0  0  0
   -3.5757    3.4526    0.0000 C   0  0  0  0  0  0  0  0  0  0  0  0
    6.0498   -4.6388    0.0000 C   0  0  0  0  0  0  0  0  0  0  0  0
   -5.0757    3.4526    0.0000 C   0  0  0  0  0  0  0  0  0  0  0  0
   -2.8257    4.7517    0.0000 C   0  0  0  0  0  0  0  0  0  0  0  0
   -5.0757    6.0506    0.0000 C   0  0  0  0  0  0  0  0  0  0  0  0
   -5.8257    4.7517    0.0000 C   0  0  0  0  0  0  0  0  0  0  0  0
   -3.5757    6.0506    0.0000 C   0  0  0  0  0  0  0  0  0  0  0  0
  1 23  1  0  0  0  0
  2  8  1  0  0  0  0
  2 10  1  0  0  0  0
  3 13  2  0  0  0  0
  4  5  1  0  0  0  0
  4  8  1  0  0  0  0
  5  9  2  0  0  0  0
  6 13  1  0  0  0  0
  6 16  1  0  0  0  0
  7  8  2  0  0  0  0
  7  9  1  0  0  0  0
  7 11  1  0  0  0  0
  9 12  1  0  0  0  0
 10 11  2  0  0  0  0
 10 13  1  0  0  0  0
 12 14  2  0  0  0  0
 12 15  1  0  0  0  0
 14 17  1  0  0  0  0
 15 18  2  0  0  0  0
 16 19  1  0  0  0  0
 17 20  2  0  0  0  0
 18 20  1  0  0  0  0
 19 21  2  0  0  0  0
 19 22  1  0  0  0  0
 21 24  1  0  0  0  0
 22 25  2  0  0  0  0
 23 24  2  0  0  0  0
 23 25  1  0  0  0  0
M  END
> <Value>
5.899998417198648

> <Relation>
<

> <SourceURI>
mol:CHEMBL1967094

$$$$

Generated by Molecular Materials Informatics

 26 28  0  0  0  0  0  0  0  0999 V2000
   -5.6184   -2.2500    0.0000 Cl  0  0  0  0  0  0  0  0  0  0  0  0
   -3.0202   -6.7500    0.0000 Cl  0  0  0  0  0  0  0  0  0  0  0  0
    3.4749   -3.0000    0.0000 O   0  0  0  0  0  0  0  0  0  0  0  0
   -1.7211    0.0000    0.0000 O   0  0  0  0  0  0  0  0  0  0  0  0
    0.8769   -3.0000    0.0000 N   0  0  0  0  0  0  0  0  0  0  0  0
    2.1760    6.7500    0.0000 N   0  0  0  0  0  0  0  0  0  0  0  0
   -1.7211   -3.0000    0.0000 C   0  0  0  0  0  0  0  0  0  0  0  0
   -0.4222   -2.2500    0.0000 C   0  0  0  0  0  0  0  0  0  0  0  0
    2.1760   -0.7500    0.0000 C   0  0  0  0  0  0  0  0  0  0  0  0
    2.1760   -2.2500    0.0000 C   0  0  0  0  0  0  0  0  0  0  0  0
    2.1760    2.2500    0.0000 C   0  0  0  0  0  0  0  0  0  0  0  0
   -1.7211   -4.5000    0.0000 C   0  0  0  0  0  0  0  0  0  0  0  0
   -3.0202   -2.2500    0.0000 C   0  0  0  0  0  0  0  0  0  0  0  0
   -4.3193   -3.0000    0.0000 C   0  0  0  0  0  0  0  0  0  0  0  0
   -3.0202   -5.2500    0.0000 C   0  0  0  0  0  0  0  0  0  0  0  0
    2.1760    3.7500    0.0000 C   0  0  0  0  0  0  0  0  0  0  0  0
    0.8769    0.0000    0.0000 C   0  0  0  0  0  0  0  0  0  0  0  0
    3.4749    0.0000    0.0000 C   0  0  0  0  0  0  0  0  0  0  0  0
   -4.3193   -4.5000    0.0000 C   0  0  0  0  0  0  0  0  0  0  0  0
    0.8769    1.5000    0.0000 C   0  0  0  0  0  0  0  0  0  0  0  0
    3.4749    1.5000    0.0000 C   0  0  0  0  0  0  0  0  0  0  0  0
   -0.4222   -0.7500    0.0000 C   0  0  0  0  0  0  0  0  0  0  0  0
    3.4749    4.5000    0.0000 C   0  0  0  0  0  0  0  0  0  0  0  0
    0.8769    4.5000    0.0000 C   0  0  0  0  0  0  0  0  0  0  0  0
    3.4749    6.0000    0.0000 C   0  0  0  0  0  0  0  0  0  0  0  0
    0.8769    6.0000    0.0000 C   0  0  0  0  0  0  0  0  0  0  0  0
  1 14  1  0  0  0  0
  2 15  1  0  0  0  0
  3 10  2  0  0  0  0
  4 22  1  0  0  0  0
  5  8  1  0  0  0  0
  5 10  1  0  0  0  0
  6 25  2  0  0  0  0
  6 26  1  0  0  0  0
  7  8  1  0  0  0  0
  7 12  2  0  0  0  0
  7 13  1  0  0  0  0
  8 22  1  0  0  0  0
  9 10  1  0  0  0  0
  9 17  2  0  0  0  0
  9 18  1  0  0  0  0
 11 16  1  0  0  0  0
 11 20  2  0  0  0  0
 11 21  1  0  0  0  0
 12 15  1  0  0  0  0
 13 14  2  0  0  0  0
 14 19  1  0  0  0  0
 15 19  2  0  0  0  0
 16 23  2  0  0  0  0
 16 24  1  0  0  0  0
 17 20  1  0  0  0  0
 18 21  2  0  0  0  0
 23 25  1  0  0  0  0
 24 26  2  0  0  0  0
M  END
> <Value>
5.899998417198648

> <Relation>
<

> <SourceURI>
mol:CHEMBL2003341

$$$$

Generated by Molecular Materials Informatics

 18 20  0  0  0  0  0  0  0  0999 V2000
   -2.5400    1.7027    0.0000 Cl  0  0  0  0  0  0  0  0  0  0  0  0
   -2.0763   -2.1510    0.0000 S   0  0  0  0  0  0  0  0  0  0  0  0
    3.2473    6.5625    0.0000 O   0  0  0  0  0  0  0  0  0  0  0  0
    0.6493   -2.4375    0.0000 N   0  0  0  0  0  0  0  0  0  0  0  0
    0.6493    2.0625    0.0000 N   0  0  0  0  0  0  0  0  0  0  0  0
    1.9482   -0.1875    0.0000 N   0  0  0  0  0  0  0  0  0  0  0  0
   -0.6498   -0.1875    0.0000 C   0  0  0  0  0  0  0  0  0  0  0  0
   -0.6498   -1.6875    0.0000 C   0  0  0  0  0  0  0  0  0  0  0  0
    0.6493    0.5625    0.0000 C   0  0  0  0  0  0  0  0  0  0  0  0
   -2.0763    0.2760    0.0000 C   0  0  0  0  0  0  0  0  0  0  0  0
   -2.9580   -0.9375    0.0000 C   0  0  0  0  0  0  0  0  0  0  0  0
    1.9482    2.8125    0.0000 C   0  0  0  0  0  0  0  0  0  0  0  0
    1.9482   -1.6875    0.0000 C   0  0  0  0  0  0  0  0  0  0  0  0
    1.9482    4.3125    0.0000 C   0  0  0  0  0  0  0  0  0  0  0  0
    3.2473    2.0625    0.0000 C   0  0  0  0  0  0  0  0  0  0  0  0
    3.2473    5.0625    0.0000 C   0  0  0  0  0  0  0  0  0  0  0  0
    4.5464    2.8125    0.0000 C   0  0  0  0  0  0  0  0  0  0  0  0
    4.5464    4.3125    0.0000 C   0  0  0  0  0  0  0  0  0  0  0  0
  1 10  1  0  0  0  0
  2  8  1  0  0  0  0
  2 11  1  0  0  0  0
  3 16  1  0  0  0  0
  4  8  1  0  0  0  0
  4 13  2  0  0  0  0
  5  9  1  0  0  0  0
  5 12  1  0  0  0  0
  6  9  2  0  0  0  0
  6 13  1  0  0  0  0
  7  8  2  0  0  0  0
  7  9  1  0  0  0  0
  7 10  1  0  0  0  0
 10 11  2  0  0  0  0
 12 14  2  0  0  0  0
 12 15  1  0  0  0  0
 14 16  1  0  0  0  0
 15 17  2  0  0  0  0
 16 18  2  0  0  0  0
 17 18  1  0  0  0  0
M  END
> <Value>
5.899998417198648

> <Relation>
<

> <SourceURI>
mol:CHEMBL1982992

$$$$

Generated by Molecular Materials Informatics

 28 30  0  0  0  0  0  0  0  0999 V2000
    3.1100   -1.5939    0.0000 S   0  0  0  0  0  0  0  0  0  0  0  0
    5.0200   -4.0773    0.0000 O   0  0  0  0  0  0  0  0  0  0  0  0
    4.3429  -11.9854    0.0000 O   0  0  0  0  0  0  0  0  0  0  0  0
    0.6830   -1.5939    0.0000 N   0  0  0  0  0  0  0  0  0  0  0  0
    2.9180   -5.6044    0.0000 N   0  0  0  0  0  0  0  0  0  0  0  0
    1.8966    3.7877    0.0000 N   0  0  0  0  0  0  0  0  0  0  0  0
    2.6466   -3.0206    0.0000 C   0  0  0  0  0  0  0  0  0  0  0  0
    1.8966   -0.7123    0.0000 C   0  0  0  0  0  0  0  0  0  0  0  0
    1.1466   -3.0206    0.0000 C   0  0  0  0  0  0  0  0  0  0  0  0
    3.5282   -4.2340    0.0000 C   0  0  0  0  0  0  0  0  0  0  0  0
    1.8966    0.7877    0.0000 C   0  0  0  0  0  0  0  0  0  0  0  0
    3.7998   -6.8178    0.0000 C   0  0  0  0  0  0  0  0  0  0  0  0
    3.1897   -8.1882    0.0000 C   0  0  0  0  0  0  0  0  0  0  0  0
    3.1955    1.5377    0.0000 C   0  0  0  0  0  0  0  0  0  0  0  0
    0.5975    1.5377    0.0000 C   0  0  0  0  0  0  0  0  0  0  0  0
    3.4613  -10.7720    0.0000 C   0  0  0  0  0  0  0  0  0  0  0  0
    4.0713   -9.4016    0.0000 C   0  0  0  0  0  0  0  0  0  0  0  0
    0.2650   -4.2340    0.0000 C   0  0  0  0  0  0  0  0  0  0  0  0
    1.6979   -8.3449    0.0000 C   0  0  0  0  0  0  0  0  0  0  0  0
    1.9695  -10.9287    0.0000 C   0  0  0  0  0  0  0  0  0  0  0  0
    5.8347  -11.8287    0.0000 C   0  0  0  0  0  0  0  0  0  0  0  0
    3.1955    3.0377    0.0000 C   0  0  0  0  0  0  0  0  0  0  0  0
    0.5975    3.0377    0.0000 C   0  0  0  0  0  0  0  0  0  0  0  0
    1.0879   -9.7153    0.0000 C   0  0  0  0  0  0  0  0  0  0  0  0
    5.2915   -6.6611    0.0000 C   0  0  0  0  0  0  0  0  0  0  0  0
    5.9915  -13.3205    0.0000 H   0  0  0  0  0  0  0  0  0  0  0  0
    7.3265  -11.6720    0.0000 H   0  0  0  0  0  0  0  0  0  0  0  0
    5.6778  -10.3369    0.0000 H   0  0  0  0  0  0  0  0  0  0  0  0
  1  7  1  0  0  0  0
  1  8  1  0  0  0  0
  2 10  2  0  0  0  0
  3 16  1  0  0  0  0
  3 21  1  0  0  0  0
  4  8  2  0  0  0  0
  4  9  1  0  0  0  0
  5 10  1  0  0  0  0
  5 12  1  0  0  0  0
  6 22  2  0  0  0  0
  6 23  1  0  0  0  0
  7  9  2  0  0  0  0
  7 10  1  0  0  0  0
  8 11  1  0  0  0  0
  9 18  1  0  0  0  0
 11 14  2  0  0  0  0
 11 15  1  0  0  0  0
 12 13  1  0  0  0  0
 12 25  1  0  0  0  0
 13 17  2  0  0  0  0
 13 19  1  0  0  0  0
 14 22  1  0  0  0  0
 15 23  2  0  0  0  0
 16 17  1  0  0  0  0
 16 20  2  0  0  0  0
 19 24  2  0  0  0  0
 20 24  1  0  0  0  0
 21 26  1  0  0  0  0
 21 27  1  0  0  0  0
 21 28  1  0  0  0  0
M  ISO  3  26   2  27   2  28   2
M  END
> <Value>
5.300000202445418

> <Relation>
<

> <SourceURI>
mol:CHEMBL1998110

$$$$

Generated by Molecular Materials Informatics

 26 29  0  0  0  0  0  0  0  0999 V2000
   -5.5227    2.9026    0.0000 O   0  0  0  0  0  0  0  0  0  0  0  0
    2.3430   -1.4576    0.0000 N   0  0  0  0  0  0  0  0  0  0  0  0
    3.5564   -2.3392    0.0000 N   0  0  0  0  0  0  0  0  0  0  0  0
    3.6419    0.7924    0.0000 N   0  0  0  0  0  0  0  0  0  0  0  0
    2.3430    3.0424    0.0000 N   0  0  0  0  0  0  0  0  0  0  0  0
   -0.2552    3.0424    0.0000 N   0  0  0  0  0  0  0  0  0  0  0  0
   -1.5541    2.2924    0.0000 N   0  0  0  0  0  0  0  0  0  0  0  0
    1.1293   -2.3392    0.0000 C   0  0  0  0  0  0  0  0  0  0  0  0
    2.3430    0.0424    0.0000 C   0  0  0  0  0  0  0  0  0  0  0  0
   -0.2972   -1.8758    0.0000 C   0  0  0  0  0  0  0  0  0  0  0  0
    1.5930   -3.7658    0.0000 C   0  0  0  0  0  0  0  0  0  0  0  0
    3.0930   -3.7658    0.0000 C   0  0  0  0  0  0  0  0  0  0  0  0
    1.0439    0.7924    0.0000 C   0  0  0  0  0  0  0  0  0  0  0  0
    1.0439    2.2924    0.0000 C   0  0  0  0  0  0  0  0  0  0  0  0
   -1.4119   -2.8794    0.0000 C   0  0  0  0  0  0  0  0  0  0  0  0
   -0.6090   -0.4085    0.0000 C   0  0  0  0  0  0  0  0  0  0  0  0
    3.6419    2.2924    0.0000 C   0  0  0  0  0  0  0  0  0  0  0  0
    3.9746   -4.9794    0.0000 C   0  0  0  0  0  0  0  0  0  0  0  0
   -2.8385   -2.4160    0.0000 C   0  0  0  0  0  0  0  0  0  0  0  0
   -2.0356    0.0550    0.0000 C   0  0  0  0  0  0  0  0  0  0  0  0
   -3.1503   -0.9487    0.0000 C   0  0  0  0  0  0  0  0  0  0  0  0
   -4.1523    2.2924    0.0000 C   0  0  0  0  0  0  0  0  0  0  0  0
   -2.8532    3.0424    0.0000 C   0  0  0  0  0  0  0  0  0  0  0  0
   -4.3090    0.8006    0.0000 C   0  0  0  0  0  0  0  0  0  0  0  0
   -6.5263    1.7879    0.0000 C   0  0  0  0  0  0  0  0  0  0  0  0
   -5.7763    0.4888    0.0000 C   0  0  0  0  0  0  0  0  0  0  0  0
  1 22  1  0  0  0  0
  1 25  1  0  0  0  0
  2  3  1  0  0  0  0
  2  8  1  0  0  0  0
  2  9  1  0  0  0  0
  3 12  2  0  0  0  0
  4  9  1  0  0  0  0
  4 17  2  0  0  0  0
  5 14  2  0  0  0  0
  5 17  1  0  0  0  0
  7  6  1  0  0  0  0
  6 14  1  0  0  0  0
  7 23  2  0  0  0  0
  8 10  1  0  0  0  0
  8 11  2  0  0  0  0
  9 13  2  0  0  0  0
 10 15  2  0  0  0  0
 10 16  1  0  0  0  0
 11 12  1  0  0  0  0
 12 18  1  0  0  0  0
 13 14  1  0  0  0  0
 15 19  1  0  0  0  0
 16 20  2  0  0  0  0
 19 21  2  0  0  0  0
 20 21  1  0  0  0  0
 22 23  1  0  0  0  0
 22 24  2  0  0  0  0
 24 26  1  0  0  0  0
 25 26  2  0  0  0  0
M  END
> <Value>
5.899998417198648

> <Relation>
<

> <SourceURI>
mol:CHEMBL1999590

$$$$

Generated by Molecular Materials Informatics

 23 25  0  0  0  0  0  0  0  0999 V2000
    4.7317   -7.8007    0.0000 Cl  0  0  0  0  0  0  0  0  0  0  0  0
    4.1884   -2.6332    0.0000 F   0  0  0  0  0  0  0  0  0  0  0  0
   -2.6684   -4.0033    0.0000 O   0  0  0  0  0  0  0  0  0  0  0  0
    1.6685   -1.5201    0.0000 N   0  0  0  0  0  0  0  0  0  0  0  0
    1.7539    1.6115    0.0000 N   0  0  0  0  0  0  0  0  0  0  0  0
    0.4550    3.8614    0.0000 N   0  0  0  0  0  0  0  0  0  0  0  0
   -0.5666   -5.5306    0.0000 N   0  0  0  0  0  0  0  0  0  0  0  0
    3.0530    3.8614    0.0000 N   0  0  0  0  0  0  0  0  0  0  0  0
    1.2050   -2.9466    0.0000 C   0  0  0  0  0  0  0  0  0  0  0  0
   -0.2950   -2.9466    0.0000 C   0  0  0  0  0  0  0  0  0  0  0  0
    0.4550   -0.6385    0.0000 C   0  0  0  0  0  0  0  0  0  0  0  0
    2.0866   -4.1603    0.0000 C   0  0  0  0  0  0  0  0  0  0  0  0
   -0.7586   -1.5201    0.0000 C   0  0  0  0  0  0  0  0  0  0  0  0
    0.4550    0.8615    0.0000 C   0  0  0  0  0  0  0  0  0  0  0  0
    3.5784   -4.0033    0.0000 C   0  0  0  0  0  0  0  0  0  0  0  0
   -1.1768   -4.1603    0.0000 C   0  0  0  0  0  0  0  0  0  0  0  0
    1.4765   -5.5306    0.0000 C   0  0  0  0  0  0  0  0  0  0  0  0
    4.4600   -5.2170    0.0000 C   0  0  0  0  0  0  0  0  0  0  0  0
   -0.8440    1.6115    0.0000 C   0  0  0  0  0  0  0  0  0  0  0  0
    3.8499   -6.5873    0.0000 C   0  0  0  0  0  0  0  0  0  0  0  0
    2.3583   -6.7440    0.0000 C   0  0  0  0  0  0  0  0  0  0  0  0
    1.7539    3.1114    0.0000 C   0  0  0  0  0  0  0  0  0  0  0  0
   -0.8440    3.1114    0.0000 C   0  0  0  0  0  0  0  0  0  0  0  0
  1 20  1  0  0  0  0
  2 15  1  0  0  0  0
  3 16  2  0  0  0  0
  4  9  1  0  0  0  0
  4 11  1  0  0  0  0
  5 14  1  0  0  0  0
  5 22  2  0  0  0  0
  6 22  1  0  0  0  0
  6 23  2  0  0  0  0
  7 16  1  0  0  0  0
  8 22  1  0  0  0  0
  9 10  2  0  0  0  0
  9 12  1  0  0  0  0
 10 13  1  0  0  0  0
 10 16  1  0  0  0  0
 11 13  2  0  0  0  0
 11 14  1  0  0  0  0
 12 15  1  0  0  0  0
 12 17  2  0  0  0  0
 14 19  2  0  0  0  0
 15 18  2  0  0  0  0
 17 21  1  0  0  0  0
 18 20  1  0  0  0  0
 19 23  1  0  0  0  0
 20 21  2  0  0  0  0
M  END
> <Value>
6.399996913372259

> <Relation>
=

> <SourceURI>
mol:CHEMBL1981079

$$$$

Generated by Molecular Materials Informatics

 15 16  0  0  0  0  0  0  0  0999 V2000
   -2.4862    0.2240    0.0000 O   0  5  0  0  0  0  0  0  0  0  0  0
   -2.4862    2.8220    0.0000 O   0  0  0  0  0  0  0  0  0  0  0  0
    4.6702    2.2729    0.0000 N   0  0  0  0  0  0  0  0  0  0  0  0
    4.6702    0.7729    0.0000 N   0  0  0  0  0  0  0  0  0  0  0  0
   -1.7362    1.5229    0.0000 N   0  3  0  0  0  0  0  0  0  0  0  0
    2.0720    2.2729    0.0000 C   0  0  0  0  0  0  0  0  0  0  0  0
    2.0720    0.7729    0.0000 C   0  0  0  0  0  0  0  0  0  0  0  0
    3.3711    3.0229    0.0000 C   0  0  0  0  0  0  0  0  0  0  0  0
   -0.2362    1.5229    0.0000 C   0  0  0  0  0  0  0  0  0  0  0  0
    3.3711    0.0229    0.0000 C   0  0  0  0  0  0  0  0  0  0  0  0
    0.6455    2.7365    0.0000 C   0  0  0  0  0  0  0  0  0  0  0  0
    0.6455    0.3094    0.0000 C   0  0  0  0  0  0  0  0  0  0  0  0
    3.3711    4.5229    0.0000 C   0  0  0  0  0  0  0  0  0  0  0  0
    3.3711   -1.4771    0.0000 C   0  0  0  0  0  0  0  0  0  0  0  0
    5.9693    3.0229    0.0000 C   0  0  0  0  0  0  0  0  0  0  0  0
  1  5  1  0  0  0  0
  2  5  2  0  0  0  0
  3  4  1  0  0  0  0
  3  8  1  0  0  0  0
  3 15  1  0  0  0  0
  4 10  2  0  0  0  0
  5  9  1  0  0  0  0
  6  7  1  0  0  0  0
  6  8  2  0  0  0  0
  6 11  1  0  0  0  0
  7 10  1  0  0  0  0
  7 12  2  0  0  0  0
  8 13  1  0  0  0  0
  9 11  2  0  0  0  0
  9 12  1  0  0  0  0
 10 14  1  0  0  0  0
M  CHG  2   1  -1   5   1
M  END
> <Value>
5.40000018605658

> <Relation>
=

> <SourceURI>
mol:CHEMBL1999632

$$$$

Generated by Molecular Materials Informatics

 22 24  0  0  0  0  0  0  0  0999 V2000
    8.0927   -5.0239    0.0000 Cl  0  0  0  0  0  0  0  0  0  0  0  0
   -3.7788   -3.7250    0.0000 O   0  0  0  0  0  0  0  0  0  0  0  0
   -1.2181   -6.2856    0.0000 O   0  0  0  0  0  0  0  0  0  0  0  0
   -1.2181   -1.1643    0.0000 N   0  0  0  0  0  0  0  0  0  0  0  0
    1.3427   -3.7250    0.0000 N   0  0  0  0  0  0  0  0  0  0  0  0
   -5.1152    1.0857    0.0000 N   0  0  0  0  0  0  0  0  0  0  0  0
   -1.2181   -2.6643    0.0000 C   0  0  0  0  0  0  0  0  0  0  0  0
   -0.1573   -3.7250    0.0000 C   0  0  0  0  0  0  0  0  0  0  0  0
   -2.2788   -3.7250    0.0000 C   0  0  0  0  0  0  0  0  0  0  0  0
   -1.2181   -4.7856    0.0000 C   0  0  0  0  0  0  0  0  0  0  0  0
   -2.5172   -0.4143    0.0000 C   0  0  0  0  0  0  0  0  0  0  0  0
    2.0927   -5.0239    0.0000 C   0  0  0  0  0  0  0  0  0  0  0  0
    3.5927   -5.0239    0.0000 C   0  0  0  0  0  0  0  0  0  0  0  0
   -2.5172    1.0857    0.0000 C   0  0  0  0  0  0  0  0  0  0  0  0
   -3.8161   -1.1643    0.0000 C   0  0  0  0  0  0  0  0  0  0  0  0
    4.3427   -3.7250    0.0000 C   0  0  0  0  0  0  0  0  0  0  0  0
    4.3427   -6.3230    0.0000 C   0  0  0  0  0  0  0  0  0  0  0  0
   -3.8161    1.8357    0.0000 C   0  0  0  0  0  0  0  0  0  0  0  0
   -5.1152   -0.4143    0.0000 C   0  0  0  0  0  0  0  0  0  0  0  0
    6.5927   -5.0239    0.0000 C   0  0  0  0  0  0  0  0  0  0  0  0
    5.8427   -3.7250    0.0000 C   0  0  0  0  0  0  0  0  0  0  0  0
    5.8427   -6.3230    0.0000 C   0  0  0  0  0  0  0  0  0  0  0  0
  1 20  1  0  0  0  0
  2  9  2  0  0  0  0
  3 10  2  0  0  0  0
  4  7  1  0  0  0  0
  4 11  1  0  0  0  0
  5  8  1  0  0  0  0
  5 12  1  0  0  0  0
  6 18  2  0  0  0  0
  6 19  1  0  0  0  0
  7  8  2  0  0  0  0
  7  9  1  0  0  0  0
  8 10  1  0  0  0  0
  9 10  1  0  0  0  0
 11 14  2  0  0  0  0
 11 15  1  0  0  0  0
 12 13  1  0  0  0  0
 13 16  2  0  0  0  0
 13 17  1  0  0  0  0
 14 18  1  0  0  0  0
 15 19  2  0  0  0  0
 16 21  1  0  0  0  0
 17 22  2  0  0  0  0
 20 21  2  0  0  0  0
 20 22  1  0  0  0  0
M  END
> <Value>
5.899998417198648

> <Relation>
<

> <SourceURI>
mol:CHEMBL1980489

$$$$

Generated by Molecular Materials Informatics

 36 40  0  0  0  0  0  0  0  0999 V2000
   -8.3291   -0.1979    0.0000 F   0  0  0  0  0  0  0  0  0  0  0  0
    6.3222   -4.5925    0.0000 O   0  0  0  0  0  0  0  0  0  0  0  0
   10.3375    4.9376    0.0000 O   0  0  0  0  0  0  0  0  0  0  0  0
   -1.0641   -3.3947    0.0000 O   0  0  0  0  0  0  0  0  0  0  0  0
   13.2043    4.0534    0.0000 O   0  0  0  0  0  0  0  0  0  0  0  0
    4.9215    0.0450    0.0000 N   0  0  0  0  0  0  0  0  0  0  0  0
    4.1714   -3.2410    0.0000 N   0  0  0  0  0  0  0  0  0  0  0  0
   -1.8297   -0.9121    0.0000 N   0  0  0  0  0  0  0  0  0  0  0  0
    6.2729   -0.6059    0.0000 C   0  0  0  0  0  0  0  0  0  0  0  0
    6.6066   -2.0683    0.0000 C   0  0  0  0  0  0  0  0  0  0  0  0
    3.5700   -0.6059    0.0000 C   0  0  0  0  0  0  0  0  0  0  0  0
    3.2362   -2.0683    0.0000 C   0  0  0  0  0  0  0  0  0  0  0  0
    5.6715   -3.2410    0.0000 C   0  0  0  0  0  0  0  0  0  0  0  0
    8.8059   -0.0277    0.0000 C   0  0  0  0  0  0  0  0  0  0  0  0
    7.3724    0.4145    0.0000 C   0  0  0  0  0  0  0  0  0  0  0  0
    9.9053    0.9925    0.0000 C   0  0  0  0  0  0  0  0  0  0  0  0
    8.0400   -2.5105    0.0000 C   0  0  0  0  0  0  0  0  0  0  0  0
    1.8027   -2.5105    0.0000 C   0  0  0  0  0  0  0  0  0  0  0  0
    0.7032   -1.4901    0.0000 C   0  0  0  0  0  0  0  0  0  0  0  0
    9.1397   -1.4901    0.0000 C   0  0  0  0  0  0  0  0  0  0  0  0
    2.4703    0.4145    0.0000 C   0  0  0  0  0  0  0  0  0  0  0  0
    1.0370   -0.0277    0.0000 C   0  0  0  0  0  0  0  0  0  0  0  0
    9.5717    2.4550    0.0000 C   0  0  0  0  0  0  0  0  0  0  0  0
   -0.7303   -1.9323    0.0000 C   0  0  0  0  0  0  0  0  0  0  0  0
   10.6712    3.4752    0.0000 C   0  0  0  0  0  0  0  0  0  0  0  0
   11.3388    0.5505    0.0000 C   0  0  0  0  0  0  0  0  0  0  0  0
   12.1046    3.0331    0.0000 C   0  0  0  0  0  0  0  0  0  0  0  0
   12.4385    1.5707    0.0000 C   0  0  0  0  0  0  0  0  0  0  0  0
   -3.2632   -1.3541    0.0000 C   0  0  0  0  0  0  0  0  0  0  0  0
   -4.3629   -0.3339    0.0000 C   0  0  0  0  0  0  0  0  0  0  0  0
   -5.7961   -0.7761    0.0000 C   0  0  0  0  0  0  0  0  0  0  0  0
   -4.0290    1.1285    0.0000 C   0  0  0  0  0  0  0  0  0  0  0  0
   -6.8958    0.2443    0.0000 C   0  0  0  0  0  0  0  0  0  0  0  0
   11.4370    5.9580    0.0000 C   0  0  0  0  0  0  0  0  0  0  0  0
   -5.1285    2.1489    0.0000 C   0  0  0  0  0  0  0  0  0  0  0  0
   -6.5620    1.7067    0.0000 C   0  0  0  0  0  0  0  0  0  0  0  0
  1 33  1  0  0  0  0
  2 13  2  0  0  0  0
  3 25  1  0  0  0  0
  3 34  1  0  0  0  0
  4 24  2  0  0  0  0
  5 27  1  0  0  0  0
  6  9  1  0  0  0  0
  6 11  1  0  0  0  0
  7 12  1  0  0  0  0
  7 13  1  0  0  0  0
  8 24  1  0  0  0  0
  8 29  1  0  0  0  0
  9 10  1  0  0  0  0
  9 15  2  0  0  0  0
 10 13  1  0  0  0  0
 10 17  2  0  0  0  0
 11 12  1  0  0  0  0
 11 21  2  0  0  0  0
 12 18  2  0  0  0  0
 14 15  1  0  0  0  0
 14 16  1  0  0  0  0
 14 20  2  0  0  0  0
 16 23  1  0  0  0  0
 16 26  2  0  0  0  0
 17 20  1  0  0  0  0
 18 19  1  0  0  0  0
 19 22  2  0  0  0  0
 19 24  1  0  0  0  0
 21 22  1  0  0  0  0
 23 25  2  0  0  0  0
 25 27  1  0  0  0  0
 26 28  1  0  0  0  0
 27 28  2  0  0  0  0
 29 30  1  0  0  0  0
 30 31  1  0  0  0  0
 30 32  2  0  0  0  0
 31 33  2  0  0  0  0
 32 35  1  0  0  0  0
 33 36  1  0  0  0  0
 35 36  2  0  0  0  0
M  END
> <Value>
6.599997654072044

> <Relation>
=

> <SourceURI>
mol:CHEMBL2000832

$$$$

Generated by Molecular Materials Informatics

 33 37  0  0  0  0  0  0  0  0999 V2000
    0.7929    3.9995    0.0000 S   0  0  0  0  0  0  0  0  0  0  0  0
   -3.5322   -3.3310    0.0000 O   0  0  0  0  0  0  0  0  0  0  0  0
    4.8176    2.0359    0.0000 N   0  0  0  0  0  0  0  0  0  0  0  0
    2.7685    8.0943    0.0000 N   0  0  0  0  0  0  0  0  0  0  0  0
    3.5185   -0.2141    0.0000 N   0  0  0  0  0  0  0  0  0  0  0  0
    4.2685    8.0943    0.0000 N   0  0  0  0  0  0  0  0  0  0  0  0
   -1.0613   -4.1339    0.0000 N   0  0  0  0  0  0  0  0  0  0  0  0
   -2.9920   -5.8723    0.0000 N   0  0  0  0  0  0  0  0  0  0  0  0
    2.2195    2.0359    0.0000 C   0  0  0  0  0  0  0  0  0  0  0  0
    2.2195    3.5359    0.0000 C   0  0  0  0  0  0  0  0  0  0  0  0
    0.7929    1.5724    0.0000 C   0  0  0  0  0  0  0  0  0  0  0  0
    3.5185    4.2859    0.0000 C   0  0  0  0  0  0  0  0  0  0  0  0
    3.5185    1.2859    0.0000 C   0  0  0  0  0  0  0  0  0  0  0  0
    0.3295    0.1459    0.0000 C   0  0  0  0  0  0  0  0  0  0  0  0
    3.5185    5.7859    0.0000 C   0  0  0  0  0  0  0  0  0  0  0  0
   -0.0887    2.7859    0.0000 C   0  0  0  0  0  0  0  0  0  0  0  0
    4.8176    3.5359    0.0000 C   0  0  0  0  0  0  0  0  0  0  0  0
    2.3049    6.6677    0.0000 C   0  0  0  0  0  0  0  0  0  0  0  0
    4.7320    6.6677    0.0000 C   0  0  0  0  0  0  0  0  0  0  0  0
    1.3331   -0.9688    0.0000 C   0  0  0  0  0  0  0  0  0  0  0  0
   -1.1378   -0.1659    0.0000 C   0  0  0  0  0  0  0  0  0  0  0  0
   -0.5976   -2.7074    0.0000 C   0  0  0  0  0  0  0  0  0  0  0  0
    0.8695   -2.3954    0.0000 C   0  0  0  0  0  0  0  0  0  0  0  0
   -1.6015   -1.5927    0.0000 C   0  0  0  0  0  0  0  0  0  0  0  0
    1.8869    9.3077    0.0000 C   0  0  0  0  0  0  0  0  0  0  0  0
   -2.5284   -4.4458    0.0000 C   0  0  0  0  0  0  0  0  0  0  0  0
   -4.4591   -6.1843    0.0000 C   0  0  0  0  0  0  0  0  0  0  0  0
   -4.9227   -7.6108    0.0000 C   0  0  0  0  0  0  0  0  0  0  0  0
   -5.4629   -5.0696    0.0000 C   0  0  0  0  0  0  0  0  0  0  0  0
   -6.3900   -7.9227    0.0000 C   0  0  0  0  0  0  0  0  0  0  0  0
   -6.9302   -5.3814    0.0000 C   0  0  0  0  0  0  0  0  0  0  0  0
   -7.3936   -6.8079    0.0000 C   0  0  0  0  0  0  0  0  0  0  0  0
   -6.8535   -9.3492    0.0000 C   0  0  0  0  0  0  0  0  0  0  0  0
  1 10  1  0  0  0  0
  1 16  1  0  0  0  0
  2 26  2  0  0  0  0
  3 13  1  0  0  0  0
  3 17  2  0  0  0  0
  4  6  1  0  0  0  0
  4 18  1  0  0  0  0
  4 25  1  0  0  0  0
  5 13  1  0  0  0  0
  6 19  2  0  0  0  0
  7 22  1  0  0  0  0
  7 26  1  0  0  0  0
  8 26  1  0  0  0  0
  8 27  1  0  0  0  0
  9 10  1  0  0  0  0
  9 11  1  0  0  0  0
  9 13  2  0  0  0  0
 10 12  2  0  0  0  0
 11 14  1  0  0  0  0
 11 16  2  0  0  0  0
 12 15  1  0  0  0  0
 12 17  1  0  0  0  0
 14 20  2  0  0  0  0
 14 21  1  0  0  0  0
 15 18  2  0  0  0  0
 15 19  1  0  0  0  0
 20 23  1  0  0  0  0
 21 24  2  0  0  0  0
 22 23  2  0  0  0  0
 22 24  1  0  0  0  0
 27 28  2  0  0  0  0
 27 29  1  0  0  0  0
 28 30  1  0  0  0  0
 29 31  2  0  0  0  0
 30 32  2  0  0  0  0
 30 33  1  0  0  0  0
 31 32  1  0  0  0  0
M  END
> <Value>
5.899998417198648

> <Relation>
<

> <SourceURI>
mol:CHEMBL1967116

$$$$

Generated by Molecular Materials Informatics

 13 14  0  0  0  0  0  0  0  0999 V2000
   -2.8376   -3.1425    0.0000 O   0  0  0  0  0  0  0  0  0  0  0  0
   -0.9069   -1.4042    0.0000 N   0  0  0  0  0  0  0  0  0  0  0  0
   -1.7885   -0.1905    0.0000 N   0  0  0  0  0  0  0  0  0  0  0  0
    4.4167    1.3095    0.0000 N   0  0  0  0  0  0  0  0  0  0  0  0
    0.5196   -0.9405    0.0000 C   0  0  0  0  0  0  0  0  0  0  0  0
    0.5196    0.5595    0.0000 C   0  0  0  0  0  0  0  0  0  0  0  0
   -0.9069    1.0229    0.0000 C   0  0  0  0  0  0  0  0  0  0  0  0
   -1.3704   -2.8307    0.0000 C   0  0  0  0  0  0  0  0  0  0  0  0
    1.8187   -1.6905    0.0000 C   0  0  0  0  0  0  0  0  0  0  0  0
    1.8187    1.3095    0.0000 C   0  0  0  0  0  0  0  0  0  0  0  0
    3.1178    0.5595    0.0000 C   0  0  0  0  0  0  0  0  0  0  0  0
    3.1178   -0.9405    0.0000 C   0  0  0  0  0  0  0  0  0  0  0  0
   -0.3667   -3.9455    0.0000 C   0  0  0  0  0  0  0  0  0  0  0  0
  1  8  2  0  0  0  0
  2  3  1  0  0  0  0
  2  5  1  0  0  0  0
  2  8  1  0  0  0  0
  3  7  2  0  0  0  0
  4 11  1  0  0  0  0
  5  6  1  0  0  0  0
  5  9  2  0  0  0  0
  6  7  1  0  0  0  0
  6 10  2  0  0  0  0
  8 13  1  0  0  0  0
  9 12  1  0  0  0  0
 10 11  1  0  0  0  0
 11 12  2  0  0  0  0
M  END
> <Value>
5.300000202445418

> <Relation>
=

> <SourceURI>
mol:CHEMBL1972454

$$$$

Generated by Molecular Materials Informatics

 24 27  0  0  0  0  0  0  0  0999 V2000
   -8.3865    4.9295    0.0000 Cl  0  0  0  0  0  0  0  0  0  0  0  0
    5.2005   -2.1965    0.0000 O   0  0  0  0  0  0  0  0  0  0  0  0
   -1.0048   -0.6965    0.0000 N   0  0  0  0  0  0  0  0  0  0  0  0
   -0.1232   -1.9100    0.0000 N   0  0  0  0  0  0  0  0  0  0  0  0
    2.6025   -2.1965    0.0000 N   0  0  0  0  0  0  0  0  0  0  0  0
    1.3034    0.0535    0.0000 C   0  0  0  0  0  0  0  0  0  0  0  0
   -0.1232    0.5169    0.0000 C   0  0  0  0  0  0  0  0  0  0  0  0
    1.3034   -1.4465    0.0000 C   0  0  0  0  0  0  0  0  0  0  0  0
   -0.5868    1.9437    0.0000 C   0  0  0  0  0  0  0  0  0  0  0  0
    2.6025    0.8035    0.0000 C   0  0  0  0  0  0  0  0  0  0  0  0
    3.9014   -1.4465    0.0000 C   0  0  0  0  0  0  0  0  0  0  0  0
    3.9014    0.0535    0.0000 C   0  0  0  0  0  0  0  0  0  0  0  0
   -2.0539    2.2555    0.0000 C   0  0  0  0  0  0  0  0  0  0  0  0
   -2.5175    3.6820    0.0000 C   0  0  0  0  0  0  0  0  0  0  0  0
    0.4170    3.0584    0.0000 C   0  0  0  0  0  0  0  0  0  0  0  0
   -3.9846    3.9939    0.0000 C   0  0  0  0  0  0  0  0  0  0  0  0
   -1.5137    4.7968    0.0000 C   0  0  0  0  0  0  0  0  0  0  0  0
    2.6025    2.3035    0.0000 C   0  0  0  0  0  0  0  0  0  0  0  0
   -0.0466    4.4850    0.0000 C   0  0  0  0  0  0  0  0  0  0  0  0
   -4.9885    2.8791    0.0000 C   0  0  0  0  0  0  0  0  0  0  0  0
   -4.4483    5.4206    0.0000 C   0  0  0  0  0  0  0  0  0  0  0  0
   -6.9192    4.6177    0.0000 C   0  0  0  0  0  0  0  0  0  0  0  0
   -6.4556    3.1911    0.0000 C   0  0  0  0  0  0  0  0  0  0  0  0
   -5.9156    5.7324    0.0000 C   0  0  0  0  0  0  0  0  0  0  0  0
  1 22  1  0  0  0  0
  2 11  1  0  0  0  0
  3  4  1  0  0  0  0
  3  7  2  0  0  0  0
  4  8  1  0  0  0  0
  5  8  1  0  0  0  0
  5 11  2  0  0  0  0
  6  7  1  0  0  0  0
  6  8  2  0  0  0  0
  6 10  1  0  0  0  0
  7  9  1  0  0  0  0
  9 13  1  0  0  0  0
  9 15  2  0  0  0  0
 10 12  2  0  0  0  0
 10 18  1  0  0  0  0
 11 12  1  0  0  0  0
 13 14  2  0  0  0  0
 14 16  1  0  0  0  0
 14 17  1  0  0  0  0
 15 19  1  0  0  0  0
 16 20  2  0  0  0  0
 16 21  1  0  0  0  0
 17 19  2  0  0  0  0
 20 23  1  0  0  0  0
 21 24  2  0  0  0  0
 22 23  2  0  0  0  0
 22 24  1  0  0  0  0
M  END
> <Value>
5.300000202445418

> <Relation>
<

> <SourceURI>
mol:CHEMBL1990590

$$$$

Generated by Molecular Materials Informatics

 16 18  0  0  0  0  0  0  0  0999 V2000
   -2.8948    0.3083    0.0000 O   0  0  0  0  0  0  0  0  0  0  0  0
   -0.5132    1.5218    0.0000 N   0  0  0  0  0  0  0  0  0  0  0  0
   -0.2848   -4.9138    0.0000 N   0  0  0  0  0  0  0  0  0  0  0  0
   -0.5132   -0.9053    0.0000 C   0  0  0  0  0  0  0  0  0  0  0  0
    0.9134   -0.4417    0.0000 C   0  0  0  0  0  0  0  0  0  0  0  0
    0.9134    1.0583    0.0000 C   0  0  0  0  0  0  0  0  0  0  0  0
   -1.3948    0.3083    0.0000 C   0  0  0  0  0  0  0  0  0  0  0  0
   -0.9767   -2.3318    0.0000 C   0  0  0  0  0  0  0  0  0  0  0  0
    2.2124   -1.1917    0.0000 C   0  0  0  0  0  0  0  0  0  0  0  0
    0.0270   -3.4466    0.0000 C   0  0  0  0  0  0  0  0  0  0  0  0
    2.2124    1.8083    0.0000 C   0  0  0  0  0  0  0  0  0  0  0  0
    3.5115   -0.4417    0.0000 C   0  0  0  0  0  0  0  0  0  0  0  0
    3.5115    1.0583    0.0000 C   0  0  0  0  0  0  0  0  0  0  0  0
    1.5188   -3.2898    0.0000 C   0  0  0  0  0  0  0  0  0  0  0  0
    1.0141   -5.6638    0.0000 C   0  0  0  0  0  0  0  0  0  0  0  0
    2.1288   -4.6600    0.0000 C   0  0  0  0  0  0  0  0  0  0  0  0
  1  7  2  0  0  0  0
  2  6  1  0  0  0  0
  2  7  1  0  0  0  0
  3 10  1  0  0  0  0
  3 15  1  0  0  0  0
  4  5  1  0  0  0  0
  4  7  1  0  0  0  0
  4  8  2  0  0  0  0
  5  6  1  0  0  0  0
  5  9  2  0  0  0  0
  6 11  2  0  0  0  0
  8 10  1  0  0  0  0
  9 12  1  0  0  0  0
 10 14  2  0  0  0  0
 11 13  1  0  0  0  0
 12 13  2  0  0  0  0
 14 16  1  0  0  0  0
 15 16  2  0  0  0  0
M  END
> <Value>
5.700000503883016

> <Error>
0.0

> <Relation>
=

> <SourceURI>
mol:CHEMBL1996176

$$$$

Generated by Molecular Materials Informatics

 21 23  0  0  0  0  0  0  0  0999 V2000
    9.8724   -0.7687    0.0000 Br  0  0  0  0  0  0  0  0  0  0  0  0
    2.0782    3.7313    0.0000 O   0  0  0  0  0  0  0  0  0  0  0  0
   -4.5445    4.1947    0.0000 N   0  0  0  0  0  0  0  0  0  0  0  0
    0.7791    1.4813    0.0000 N   0  0  0  0  0  0  0  0  0  0  0  0
   -5.4262    2.9812    0.0000 N   0  0  0  0  0  0  0  0  0  0  0  0
    3.3773    1.4813    0.0000 N   0  0  0  0  0  0  0  0  0  0  0  0
   -3.1180    2.2313    0.0000 C   0  0  0  0  0  0  0  0  0  0  0  0
   -3.1180    3.7313    0.0000 C   0  0  0  0  0  0  0  0  0  0  0  0
   -0.5198    2.2313    0.0000 C   0  0  0  0  0  0  0  0  0  0  0  0
   -1.8189    1.4813    0.0000 C   0  0  0  0  0  0  0  0  0  0  0  0
   -1.8189    4.4812    0.0000 C   0  0  0  0  0  0  0  0  0  0  0  0
   -4.5445    1.7678    0.0000 C   0  0  0  0  0  0  0  0  0  0  0  0
   -0.5198    3.7313    0.0000 C   0  0  0  0  0  0  0  0  0  0  0  0
    2.0782    2.2313    0.0000 C   0  0  0  0  0  0  0  0  0  0  0  0
    5.9753    1.4813    0.0000 C   0  0  0  0  0  0  0  0  0  0  0  0
    4.6764    2.2313    0.0000 C   0  0  0  0  0  0  0  0  0  0  0  0
    7.2744    2.2313    0.0000 C   0  0  0  0  0  0  0  0  0  0  0  0
    5.9753   -0.0187    0.0000 C   0  0  0  0  0  0  0  0  0  0  0  0
    8.5735   -0.0187    0.0000 C   0  0  0  0  0  0  0  0  0  0  0  0
    8.5735    1.4813    0.0000 C   0  0  0  0  0  0  0  0  0  0  0  0
    7.2744   -0.7687    0.0000 C   0  0  0  0  0  0  0  0  0  0  0  0
  1 19  1  0  0  0  0
  2 14  2  0  0  0  0
  3  5  1  0  0  0  0
  3  8  1  0  0  0  0
  4  9  1  0  0  0  0
  4 14  1  0  0  0  0
  5 12  2  0  0  0  0
  6 14  1  0  0  0  0
  6 16  1  0  0  0  0
  7  8  1  0  0  0  0
  7 10  2  0  0  0  0
  7 12  1  0  0  0  0
  8 11  2  0  0  0  0
  9 10  1  0  0  0  0
  9 13  2  0  0  0  0
 11 13  1  0  0  0  0
 15 16  1  0  0  0  0
 15 17  2  0  0  0  0
 15 18  1  0  0  0  0
 17 20  1  0  0  0  0
 18 21  2  0  0  0  0
 19 20  2  0  0  0  0
 19 21  1  0  0  0  0
M  END
> <Value>
5.899998417198648

> <Relation>
<

> <SourceURI>
mol:CHEMBL1970709

$$$$

Generated by Molecular Materials Informatics

 16 18  0  0  0  0  0  0  0  0999 V2000
    4.7127    1.3825    0.0000 O   0  0  0  0  0  0  0  0  0  0  0  0
    7.0683   -2.5584    0.0000 O   0  0  0  0  0  0  0  0  0  0  0  0
    5.7163    0.2678    0.0000 N   0  0  0  0  0  0  0  0  0  0  0  0
   -1.9813    3.4859    0.0000 N   0  0  0  0  0  0  0  0  0  0  0  0
   -2.8629    2.2723    0.0000 N   0  0  0  0  0  0  0  0  0  0  0  0
    2.0434    1.5223    0.0000 C   0  0  0  0  0  0  0  0  0  0  0  0
    3.3423    0.7723    0.0000 C   0  0  0  0  0  0  0  0  0  0  0  0
   -0.5548    1.5223    0.0000 C   0  0  0  0  0  0  0  0  0  0  0  0
   -0.5548    3.0223    0.0000 C   0  0  0  0  0  0  0  0  0  0  0  0
    0.7443    0.7723    0.0000 C   0  0  0  0  0  0  0  0  0  0  0  0
    3.4992   -0.7193    0.0000 C   0  0  0  0  0  0  0  0  0  0  0  0
    4.9663   -1.0313    0.0000 C   0  0  0  0  0  0  0  0  0  0  0  0
    2.0434    3.0223    0.0000 C   0  0  0  0  0  0  0  0  0  0  0  0
    0.7443    3.7723    0.0000 C   0  0  0  0  0  0  0  0  0  0  0  0
   -1.9813    1.0589    0.0000 C   0  0  0  0  0  0  0  0  0  0  0  0
    5.5765   -2.4015    0.0000 C   0  0  0  0  0  0  0  0  0  0  0  0
  1  3  1  0  0  0  0
  1  7  1  0  0  0  0
  2 16  1  0  0  0  0
  3 12  2  0  0  0  0
  4  5  1  0  0  0  0
  4  9  1  0  0  0  0
  5 15  2  0  0  0  0
  6  7  1  0  0  0  0
  6 10  1  0  0  0  0
  6 13  2  0  0  0  0
  7 11  2  0  0  0  0
  8  9  1  0  0  0  0
  8 10  2  0  0  0  0
  8 15  1  0  0  0  0
  9 14  2  0  0  0  0
 11 12  1  0  0  0  0
 12 16  1  0  0  0  0
 13 14  1  0  0  0  0
M  END
> <Value>
5.40000018605658

> <Relation>
=

> <SourceURI>
mol:CHEMBL1974617

$$$$

Generated by Molecular Materials Informatics

 23 25  0  0  0  0  0  0  0  0999 V2000
    4.1884   -2.6332    0.0000 Cl  0  0  0  0  0  0  0  0  0  0  0  0
    4.7317   -7.8007    0.0000 Cl  0  0  0  0  0  0  0  0  0  0  0  0
   -2.6684   -4.0033    0.0000 O   0  0  0  0  0  0  0  0  0  0  0  0
    1.6685   -1.5201    0.0000 N   0  0  0  0  0  0  0  0  0  0  0  0
    1.7539    1.6115    0.0000 N   0  0  0  0  0  0  0  0  0  0  0  0
    0.4550    3.8614    0.0000 N   0  0  0  0  0  0  0  0  0  0  0  0
   -0.5666   -5.5306    0.0000 N   0  0  0  0  0  0  0  0  0  0  0  0
    3.0530    3.8614    0.0000 N   0  0  0  0  0  0  0  0  0  0  0  0
    1.2050   -2.9466    0.0000 C   0  0  0  0  0  0  0  0  0  0  0  0
   -0.2950   -2.9466    0.0000 C   0  0  0  0  0  0  0  0  0  0  0  0
    0.4550   -0.6385    0.0000 C   0  0  0  0  0  0  0  0  0  0  0  0
    2.0866   -4.1603    0.0000 C   0  0  0  0  0  0  0  0  0  0  0  0
   -0.7586   -1.5201    0.0000 C   0  0  0  0  0  0  0  0  0  0  0  0
    0.4550    0.8615    0.0000 C   0  0  0  0  0  0  0  0  0  0  0  0
    3.5784   -4.0033    0.0000 C   0  0  0  0  0  0  0  0  0  0  0  0
   -1.1768   -4.1603    0.0000 C   0  0  0  0  0  0  0  0  0  0  0  0
    1.4765   -5.5306    0.0000 C   0  0  0  0  0  0  0  0  0  0  0  0
    4.4600   -5.2170    0.0000 C   0  0  0  0  0  0  0  0  0  0  0  0
   -0.8440    1.6115    0.0000 C   0  0  0  0  0  0  0  0  0  0  0  0
    3.8499   -6.5873    0.0000 C   0  0  0  0  0  0  0  0  0  0  0  0
    2.3583   -6.7440    0.0000 C   0  0  0  0  0  0  0  0  0  0  0  0
    1.7539    3.1114    0.0000 C   0  0  0  0  0  0  0  0  0  0  0  0
   -0.8440    3.1114    0.0000 C   0  0  0  0  0  0  0  0  0  0  0  0
  1 15  1  0  0  0  0
  2 20  1  0  0  0  0
  3 16  2  0  0  0  0
  4  9  1  0  0  0  0
  4 11  1  0  0  0  0
  5 14  1  0  0  0  0
  5 22  2  0  0  0  0
  6 22  1  0  0  0  0
  6 23  2  0  0  0  0
  7 16  1  0  0  0  0
  8 22  1  0  0  0  0
  9 10  2  0  0  0  0
  9 12  1  0  0  0  0
 10 13  1  0  0  0  0
 10 16  1  0  0  0  0
 11 13  2  0  0  0  0
 11 14  1  0  0  0  0
 12 15  1  0  0  0  0
 12 17  2  0  0  0  0
 14 19  2  0  0  0  0
 15 18  2  0  0  0  0
 17 21  1  0  0  0  0
 18 20  1  0  0  0  0
 19 23  1  0  0  0  0
 20 21  2  0  0  0  0
M  END
> <Value>
6.399996913372259

> <Error>
0.0

> <Relation>
=

> <SourceURI>
mol:CHEMBL1965660

$$$$

Generated by Molecular Materials Informatics

 30 33  0  0  0  0  0  0  0  0999 V2000
   -6.9172   -2.4750    0.0000 O   0  0  0  0  0  0  0  0  0  0  0  0
   -6.9172   -5.4749    0.0000 O   0  0  0  0  0  0  0  0  0  0  0  0
   -4.3192   -0.9750    0.0000 O   0  0  0  0  0  0  0  0  0  0  0  0
    0.8768   -0.9750    0.0000 N   0  0  0  0  0  0  0  0  0  0  0  0
   -0.4223   -3.2250    0.0000 N   0  0  0  0  0  0  0  0  0  0  0  0
   -1.7211   -5.4749    0.0000 N   0  0  0  0  0  0  0  0  0  0  0  0
    2.1758   -3.2250    0.0000 N   0  0  0  0  0  0  0  0  0  0  0  0
    0.8768   -5.4749    0.0000 N   0  0  0  0  0  0  0  0  0  0  0  0
    2.1758   -0.2251    0.0000 C   0  0  0  0  0  0  0  0  0  0  0  0
    0.8768   -2.4750    0.0000 C   0  0  0  0  0  0  0  0  0  0  0  0
    2.1758    1.2749    0.0000 C   0  0  0  0  0  0  0  0  0  0  0  0
   -3.0202   -4.7249    0.0000 C   0  0  0  0  0  0  0  0  0  0  0  0
   -5.6183   -3.2250    0.0000 C   0  0  0  0  0  0  0  0  0  0  0  0
   -0.4223   -4.7249    0.0000 C   0  0  0  0  0  0  0  0  0  0  0  0
   -5.6183   -4.7249    0.0000 C   0  0  0  0  0  0  0  0  0  0  0  0
   -4.3192   -2.4750    0.0000 C   0  0  0  0  0  0  0  0  0  0  0  0
   -0.4223   -0.2251    0.0000 C   0  0  0  0  0  0  0  0  0  0  0  0
   -4.3192   -5.4749    0.0000 C   0  0  0  0  0  0  0  0  0  0  0  0
   -3.0202   -3.2250    0.0000 C   0  0  0  0  0  0  0  0  0  0  0  0
    3.4747   -0.9750    0.0000 C   0  0  0  0  0  0  0  0  0  0  0  0
    0.8768    2.0249    0.0000 C   0  0  0  0  0  0  0  0  0  0  0  0
    3.4747    2.0249    0.0000 C   0  0  0  0  0  0  0  0  0  0  0  0
   -0.4223    1.2749    0.0000 C   0  0  0  0  0  0  0  0  0  0  0  0
    4.7738    1.2749    0.0000 C   0  0  0  0  0  0  0  0  0  0  0  0
    4.7738   -0.2251    0.0000 C   0  0  0  0  0  0  0  0  0  0  0  0
    2.1758   -4.7249    0.0000 C   0  0  0  0  0  0  0  0  0  0  0  0
    6.0728    2.0249    0.0000 C   0  0  0  0  0  0  0  0  0  0  0  0
   -8.2162   -3.2250    0.0000 C   0  0  0  0  0  0  0  0  0  0  0  0
   -6.9172   -6.9749    0.0000 C   0  0  0  0  0  0  0  0  0  0  0  0
   -3.0202   -0.2251    0.0000 C   0  0  0  0  0  0  0  0  0  0  0  0
  1 13  1  0  0  0  0
  1 28  1  0  0  0  0
  2 15  1  0  0  0  0
  2 29  1  0  0  0  0
  3 16  1  0  0  0  0
  3 30  1  0  0  0  0
  4  9  1  0  0  0  0
  4 10  1  0  0  0  0
  4 17  1  0  0  0  0
  5 10  2  0  0  0  0
  5 14  1  0  0  0  0
  6 12  1  0  0  0  0
  6 14  1  0  0  0  0
  7 10  1  0  0  0  0
  7 26  2  0  0  0  0
  8 14  2  0  0  0  0
  8 26  1  0  0  0  0
  9 11  1  0  0  0  0
  9 20  2  0  0  0  0
 11 21  1  0  0  0  0
 11 22  2  0  0  0  0
 12 18  2  0  0  0  0
 12 19  1  0  0  0  0
 13 15  2  0  0  0  0
 13 16  1  0  0  0  0
 15 18  1  0  0  0  0
 16 19  2  0  0  0  0
 17 23  1  0  0  0  0
 20 25  1  0  0  0  0
 21 23  1  0  0  0  0
 22 24  1  0  0  0  0
 24 25  2  0  0  0  0
 24 27  1  0  0  0  0
M  END
> <Value>
5.59999938302362

> <Relation>
=

> <SourceURI>
mol:CHEMBL1992125

$$$$

Generated by Molecular Materials Informatics

 29 32  0  0  0  0  0  0  0  0999 V2000
    8.2562   -2.2916    0.0000 O   0  0  0  0  0  0  0  0  0  0  0  0
    8.2562   -5.2916    0.0000 O   0  0  0  0  0  0  0  0  0  0  0  0
    1.7610    5.9584    0.0000 O   0  0  0  0  0  0  0  0  0  0  0  0
    0.4619   -0.7916    0.0000 N   0  0  0  0  0  0  0  0  0  0  0  0
    3.0600   -0.7916    0.0000 N   0  0  0  0  0  0  0  0  0  0  0  0
    1.7610    1.4583    0.0000 N   0  0  0  0  0  0  0  0  0  0  0  0
   -0.9647   -2.7553    0.0000 N   0  0  0  0  0  0  0  0  0  0  0  0
    3.0600    3.7083    0.0000 N   0  0  0  0  0  0  0  0  0  0  0  0
    1.7610   -0.0416    0.0000 C   0  0  0  0  0  0  0  0  0  0  0  0
    0.4619   -2.2916    0.0000 C   0  0  0  0  0  0  0  0  0  0  0  0
    3.0600   -2.2916    0.0000 C   0  0  0  0  0  0  0  0  0  0  0  0
    4.3591   -3.0416    0.0000 C   0  0  0  0  0  0  0  0  0  0  0  0
    1.7610   -3.0416    0.0000 C   0  0  0  0  0  0  0  0  0  0  0  0
   -0.9647   -0.3282    0.0000 C   0  0  0  0  0  0  0  0  0  0  0  0
    0.4619    2.2083    0.0000 C   0  0  0  0  0  0  0  0  0  0  0  0
    5.6580   -2.2916    0.0000 C   0  0  0  0  0  0  0  0  0  0  0  0
    6.9571   -3.0416    0.0000 C   0  0  0  0  0  0  0  0  0  0  0  0
   -1.8463   -1.5416    0.0000 C   0  0  0  0  0  0  0  0  0  0  0  0
    4.3591   -4.5416    0.0000 C   0  0  0  0  0  0  0  0  0  0  0  0
    0.4619    3.7083    0.0000 C   0  0  0  0  0  0  0  0  0  0  0  0
    6.9571   -4.5416    0.0000 C   0  0  0  0  0  0  0  0  0  0  0  0
    5.6580   -5.2916    0.0000 C   0  0  0  0  0  0  0  0  0  0  0  0
   -0.8370    1.4583    0.0000 C   0  0  0  0  0  0  0  0  0  0  0  0
    1.7610    4.4584    0.0000 C   0  0  0  0  0  0  0  0  0  0  0  0
   -0.8370    4.4584    0.0000 C   0  0  0  0  0  0  0  0  0  0  0  0
   -2.1361    2.2083    0.0000 C   0  0  0  0  0  0  0  0  0  0  0  0
   -2.1361    3.7083    0.0000 C   0  0  0  0  0  0  0  0  0  0  0  0
    9.5551   -3.0416    0.0000 C   0  0  0  0  0  0  0  0  0  0  0  0
    9.5551   -4.5416    0.0000 C   0  0  0  0  0  0  0  0  0  0  0  0
  1 17  1  0  0  0  0
  1 28  1  0  0  0  0
  2 21  1  0  0  0  0
  2 29  1  0  0  0  0
  3 24  2  0  0  0  0
  4  9  1  0  0  0  0
  4 10  1  0  0  0  0
  4 14  1  0  0  0  0
  5  9  2  0  0  0  0
  5 11  1  0  0  0  0
  6  9  1  0  0  0  0
  6 15  1  0  0  0  0
  7 10  2  0  0  0  0
  7 18  1  0  0  0  0
  8 24  1  0  0  0  0
 10 13  1  0  0  0  0
 11 12  1  0  0  0  0
 11 13  2  0  0  0  0
 12 16  1  0  0  0  0
 12 19  2  0  0  0  0
 14 18  2  0  0  0  0
 15 20  1  0  0  0  0
 15 23  2  0  0  0  0
 16 17  2  0  0  0  0
 17 21  1  0  0  0  0
 19 22  1  0  0  0  0
 20 24  1  0  0  0  0
 20 25  2  0  0  0  0
 21 22  2  0  0  0  0
 23 26  1  0  0  0  0
 25 27  1  0  0  0  0
 26 27  2  0  0  0  0
M  END
> <Value>
5.899998417198648

> <Relation>
<

> <SourceURI>
mol:CHEMBL1998112

$$$$

Generated by Molecular Materials Informatics

 20 22  0  0  0  0  0  0  0  0999 V2000
   -4.6828    3.1310    0.0000 Cl  0  0  0  0  0  0  0  0  0  0  0  0
   -0.8213   -2.7729    0.0000 N   0  0  0  0  0  0  0  0  0  0  0  0
    1.9043   -3.0594    0.0000 N   0  0  0  0  0  0  0  0  0  0  0  0
   -2.2118    3.9339    0.0000 N   0  0  0  0  0  0  0  0  0  0  0  0
    0.2591    4.7368    0.0000 N   0  0  0  0  0  0  0  0  0  0  0  0
    0.3356    8.7046    0.0000 N   0  0  0  0  0  0  0  0  0  0  0  0
   -0.8213   -0.3460    0.0000 C   0  0  0  0  0  0  0  0  0  0  0  0
    0.6053   -0.8094    0.0000 C   0  0  0  0  0  0  0  0  0  0  0  0
   -1.2849    1.0808    0.0000 C   0  0  0  0  0  0  0  0  0  0  0  0
    0.6053   -2.3094    0.0000 C   0  0  0  0  0  0  0  0  0  0  0  0
   -1.7029   -1.5594    0.0000 C   0  0  0  0  0  0  0  0  0  0  0  0
   -0.2811    2.1955    0.0000 C   0  0  0  0  0  0  0  0  0  0  0  0
   -2.7520    1.3926    0.0000 C   0  0  0  0  0  0  0  0  0  0  0  0
   -0.7448    3.6221    0.0000 C   0  0  0  0  0  0  0  0  0  0  0  0
    1.9043   -0.0594    0.0000 C   0  0  0  0  0  0  0  0  0  0  0  0
   -3.2157    2.8191    0.0000 C   0  0  0  0  0  0  0  0  0  0  0  0
    3.2033   -0.8094    0.0000 C   0  0  0  0  0  0  0  0  0  0  0  0
    3.2033   -2.3094    0.0000 C   0  0  0  0  0  0  0  0  0  0  0  0
   -0.2046    6.1633    0.0000 C   0  0  0  0  0  0  0  0  0  0  0  0
    0.7993    7.2781    0.0000 C   0  0  0  0  0  0  0  0  0  0  0  0
  1 16  1  0  0  0  0
  2 10  1  0  0  0  0
  2 11  1  0  0  0  0
  3 10  2  0  0  0  0
  3 18  1  0  0  0  0
  4 14  1  0  0  0  0
  4 16  2  0  0  0  0
  5 14  1  0  0  0  0
  5 19  1  0  0  0  0
  6 20  1  0  0  0  0
  7  8  1  0  0  0  0
  7  9  1  0  0  0  0
  7 11  2  0  0  0  0
  8 10  1  0  0  0  0
  8 15  2  0  0  0  0
  9 12  1  0  0  0  0
  9 13  2  0  0  0  0
 12 14  2  0  0  0  0
 13 16  1  0  0  0  0
 15 17  1  0  0  0  0
 17 18  2  0  0  0  0
 19 20  1  0  0  0  0
M  END
> <Value>
7.100015437450609

> <Relation>
=

> <SourceURI>
mol:CHEMBL1972290

$$$$

Generated by Molecular Materials Informatics

 28 32  0  0  0  0  0  0  0  0999 V2000
    7.6899    1.6561    0.0000 F   0  0  0  0  0  0  0  0  0  0  0  0
    6.0843    6.5979    0.0000 F   0  0  0  0  0  0  0  0  0  0  0  0
    5.2474   -3.1764    0.0000 O   0  0  0  0  0  0  0  0  0  0  0  0
    3.6234   -1.3728    0.0000 N   0  0  0  0  0  0  0  0  0  0  0  0
    5.8405   -0.3857    0.0000 N   0  0  0  0  0  0  0  0  0  0  0  0
   -1.8572    0.4054    0.0000 N   0  0  0  0  0  0  0  0  0  0  0  0
   -1.8572    2.8325    0.0000 N   0  0  0  0  0  0  0  0  0  0  0  0
   -2.7388    1.6188    0.0000 N   0  0  0  0  0  0  0  0  0  0  0  0
    3.4665    0.1188    0.0000 C   0  0  0  0  0  0  0  0  0  0  0  0
    4.8368    0.7290    0.0000 C   0  0  0  0  0  0  0  0  0  0  0  0
    2.1675    0.8688    0.0000 C   0  0  0  0  0  0  0  0  0  0  0  0
    5.0905   -1.6848    0.0000 C   0  0  0  0  0  0  0  0  0  0  0  0
    5.1486    2.1963    0.0000 C   0  0  0  0  0  0  0  0  0  0  0  0
   -0.4306    0.8688    0.0000 C   0  0  0  0  0  0  0  0  0  0  0  0
    0.8685    0.1188    0.0000 C   0  0  0  0  0  0  0  0  0  0  0  0
   -0.4306    2.3688    0.0000 C   0  0  0  0  0  0  0  0  0  0  0  0
    2.8734   -2.6719    0.0000 C   0  0  0  0  0  0  0  0  0  0  0  0
    2.1675    2.3688    0.0000 C   0  0  0  0  0  0  0  0  0  0  0  0
    6.5754    2.6597    0.0000 C   0  0  0  0  0  0  0  0  0  0  0  0
    0.8685    3.1188    0.0000 C   0  0  0  0  0  0  0  0  0  0  0  0
    3.8770   -3.7866    0.0000 C   0  0  0  0  0  0  0  0  0  0  0  0
    4.0339    3.1999    0.0000 C   0  0  0  0  0  0  0  0  0  0  0  0
   -2.3206   -1.0212    0.0000 C   0  0  0  0  0  0  0  0  0  0  0  0
    6.8872    4.1270    0.0000 C   0  0  0  0  0  0  0  0  0  0  0  0
    4.3459    4.6672    0.0000 C   0  0  0  0  0  0  0  0  0  0  0  0
    5.7725    5.1306    0.0000 C   0  0  0  0  0  0  0  0  0  0  0  0
   -1.3170   -2.1359    0.0000 C   0  0  0  0  0  0  0  0  0  0  0  0
   -3.7879   -1.3330    0.0000 C   0  0  0  0  0  0  0  0  0  0  0  0
  1 19  1  0  0  0  0
  2 26  1  0  0  0  0
  3 12  1  0  0  0  0
  3 21  1  0  0  0  0
  4  9  1  0  0  0  0
  4 12  1  0  0  0  0
  4 17  1  0  0  0  0
  5 10  1  0  0  0  0
  5 12  2  0  0  0  0
  6  8  1  0  0  0  0
  6 14  1  0  0  0  0
  6 23  1  0  0  0  0
  7  8  2  0  0  0  0
  7 16  1  0  0  0  0
  9 10  2  0  0  0  0
  9 11  1  0  0  0  0
 10 13  1  0  0  0  0
 11 15  1  0  0  0  0
 11 18  2  0  0  0  0
 13 19  1  0  0  0  0
 13 22  2  0  0  0  0
 14 15  2  0  0  0  0
 14 16  1  0  0  0  0
 16 20  2  0  0  0  0
 17 21  2  0  0  0  0
 18 20  1  0  0  0  0
 19 24  2  0  0  0  0
 22 25  1  0  0  0  0
 23 27  1  0  0  0  0
 23 28  1  0  0  0  0
 24 26  1  0  0  0  0
 25 26  2  0  0  0  0
M  END
> <Value>
5.899998417198648

> <Relation>
<

> <SourceURI>
mol:CHEMBL1969126

$$$$

Generated by Molecular Materials Informatics

 28 31  0  0  0  0  0  0  0  0999 V2000
   -3.5330   -2.5224    0.0000 Br  0  0  0  0  0  0  0  0  0  0  0  0
   -1.3850   12.0215    0.0000 Cl  0  0  0  0  0  0  0  0  0  0  0  0
   -1.1514   -3.7358    0.0000 S   0  0  0  0  0  0  0  0  0  0  0  0
   -0.5347    5.2004    0.0000 O   0  0  0  0  0  0  0  0  0  0  0  0
    1.5742   -4.0224    0.0000 N   0  0  0  0  0  0  0  0  0  0  0  0
    2.8732   -1.7724    0.0000 N   0  0  0  0  0  0  0  0  0  0  0  0
    1.5742    0.4776    0.0000 N   0  0  0  0  0  0  0  0  0  0  0  0
   -3.0056    4.3975    0.0000 N   0  0  0  0  0  0  0  0  0  0  0  0
    0.2752   -1.7724    0.0000 C   0  0  0  0  0  0  0  0  0  0  0  0
   -1.1514   -1.3089    0.0000 C   0  0  0  0  0  0  0  0  0  0  0  0
    0.2752   -3.2724    0.0000 C   0  0  0  0  0  0  0  0  0  0  0  0
   -2.0330   -2.5224    0.0000 C   0  0  0  0  0  0  0  0  0  0  0  0
   -1.6150    0.1178    0.0000 C   0  0  0  0  0  0  0  0  0  0  0  0
    1.5742   -1.0224    0.0000 C   0  0  0  0  0  0  0  0  0  0  0  0
   -3.0821    0.4296    0.0000 C   0  0  0  0  0  0  0  0  0  0  0  0
   -0.6112    1.2325    0.0000 C   0  0  0  0  0  0  0  0  0  0  0  0
    2.8732   -3.2724    0.0000 C   0  0  0  0  0  0  0  0  0  0  0  0
   -2.5419    2.9709    0.0000 C   0  0  0  0  0  0  0  0  0  0  0  0
   -3.5458    1.8562    0.0000 C   0  0  0  0  0  0  0  0  0  0  0  0
   -1.0748    2.6591    0.0000 C   0  0  0  0  0  0  0  0  0  0  0  0
   -2.0018    5.5122    0.0000 C   0  0  0  0  0  0  0  0  0  0  0  0
   -1.4618    8.0535    0.0000 C   0  0  0  0  0  0  0  0  0  0  0  0
   -2.4654    6.9387    0.0000 C   0  0  0  0  0  0  0  0  0  0  0  0
   -1.9252    9.4802    0.0000 C   0  0  0  0  0  0  0  0  0  0  0  0
   -0.9216   10.5949    0.0000 C   0  0  0  0  0  0  0  0  0  0  0  0
    0.0055    7.7416    0.0000 C   0  0  0  0  0  0  0  0  0  0  0  0
    0.5457   10.2829    0.0000 C   0  0  0  0  0  0  0  0  0  0  0  0
    1.0093    8.8564    0.0000 C   0  0  0  0  0  0  0  0  0  0  0  0
  1 12  1  0  0  0  0
  2 25  1  0  0  0  0
  3 11  1  0  0  0  0
  3 12  1  0  0  0  0
  4 21  2  0  0  0  0
  5 11  1  0  0  0  0
  5 17  2  0  0  0  0
  6 14  2  0  0  0  0
  6 17  1  0  0  0  0
  7 14  1  0  0  0  0
  8 18  1  0  0  0  0
  8 21  1  0  0  0  0
  9 10  1  0  0  0  0
  9 11  2  0  0  0  0
  9 14  1  0  0  0  0
 10 12  2  0  0  0  0
 10 13  1  0  0  0  0
 13 15  2  0  0  0  0
 13 16  1  0  0  0  0
 15 19  1  0  0  0  0
 16 20  2  0  0  0  0
 18 19  2  0  0  0  0
 18 20  1  0  0  0  0
 21 23  1  0  0  0  0
 22 23  1  0  0  0  0
 22 24  1  0  0  0  0
 22 26  2  0  0  0  0
 24 25  2  0  0  0  0
 25 27  1  0  0  0  0
 26 28  1  0  0  0  0
 27 28  2  0  0  0  0
M  END
> <Value>
5.899998417198648

> <Relation>
<

> <SourceURI>
mol:CHEMBL1980896

$$$$

Generated by Molecular Materials Informatics

 13 15  0  0  0  0  0  0  0  0999 V2000
    4.6801   -3.1348    0.0000 C   0  0  0  0  0  0  0  0  0  0  0  0
    5.5634   -4.3428    0.0000 C   0  0  0  0  0  0  0  0  0  0  0  0
    5.5558   -1.9116    0.0000 N   0  0  0  0  0  0  0  0  0  0  0  0
    6.9828   -2.3723    0.0000 C   0  0  0  0  0  0  0  0  0  0  0  0
    6.9904   -3.8672    0.0000 S   0  0  0  0  0  0  0  0  0  0  0  0
    3.2531   -3.6104    0.0000 C   0  0  0  0  0  0  0  0  0  0  0  0
    3.2531   -5.1129    0.0000 C   0  0  0  0  0  0  0  0  0  0  0  0
    4.6951   -5.5660    0.0000 C   0  0  0  0  0  0  0  0  0  0  0  0
    8.1909   -1.4813    0.0000 N   0  0  0  0  0  0  0  0  0  0  0  0
    1.9544   -2.8630    0.0000 C   0  0  0  0  0  0  0  0  0  0  0  0
    1.9544   -5.8604    0.0000 C   0  0  0  0  0  0  0  0  0  0  0  0
    0.6633   -3.6104    0.0000 C   0  0  0  0  0  0  0  0  0  0  0  0
    0.6633   -5.1129    0.0000 C   0  0  0  0  0  0  0  0  0  0  0  0
  2  1  2  0  0  0  0
  3  1  1  0  0  0  0
  4  3  2  0  0  0  0
  5  2  1  0  0  0  0
  6  1  1  0  0  0  0
  7  6  1  0  0  0  0
  8  2  1  0  0  0  0
  9  4  1  0  0  0  0
 10  6  2  0  0  0  0
 11  7  2  0  0  0  0
 12 10  1  0  0  0  0
 13 12  2  0  0  0  0
  8  7  1  0  0  0  0
  4  5  1  0  0  0  0
 13 11  1  0  0  0  0
M  END
> <Value>
4.0

> <Relation>
=

> <SourceURI>
mol:CHEMBL1178727

$$$$

Generated by Molecular Materials Informatics

 43 49  0  0  0  0  0  0  0  0999 V2000
    3.9578   -2.1391    0.0000 S   0  0  0  0  0  0  0  0  0  0  0  0
   -2.6344    6.3520    0.0000 O   0  0  0  0  0  0  0  0  0  0  0  0
   -6.5269   -2.2247    0.0000 O   0  0  0  0  0  0  0  0  0  0  0  0
    2.5312   -0.1756    0.0000 N   0  0  0  0  0  0  0  0  0  0  0  0
    1.1047   -2.1391    0.0000 N   0  0  0  0  0  0  0  0  0  0  0  0
    1.6449    2.8293    0.0000 N   0  0  0  0  0  0  0  0  0  0  0  0
   -0.2858    4.5677    0.0000 N   0  0  0  0  0  0  0  0  0  0  0  0
    2.1851    5.3706    0.0000 N   0  0  0  0  0  0  0  0  0  0  0  0
   -4.2769   -3.5236    0.0000 N   0  0  0  0  0  0  0  0  0  0  0  0
   -1.6766    8.8475    0.0000 N   0  0  0  0  0  0  0  0  0  0  0  0
    1.1047    0.2879    0.0000 C   0  0  0  0  0  0  0  0  0  0  0  0
    0.2231   -0.9256    0.0000 C   0  0  0  0  0  0  0  0  0  0  0  0
    2.5312   -1.6756    0.0000 C   0  0  0  0  0  0  0  0  0  0  0  0
    0.6411    1.7146    0.0000 C   0  0  0  0  0  0  0  0  0  0  0  0
   -1.2769   -0.9256    0.0000 C   0  0  0  0  0  0  0  0  0  0  0  0
    3.9578    0.2879    0.0000 C   0  0  0  0  0  0  0  0  0  0  0  0
    4.8394   -0.9256    0.0000 C   0  0  0  0  0  0  0  0  0  0  0  0
   -0.8260    2.0264    0.0000 C   0  0  0  0  0  0  0  0  0  0  0  0
   -2.0269   -2.2247    0.0000 C   0  0  0  0  0  0  0  0  0  0  0  0
    1.1813    4.2559    0.0000 C   0  0  0  0  0  0  0  0  0  0  0  0
   -2.0269    0.3735    0.0000 C   0  0  0  0  0  0  0  0  0  0  0  0
   -3.5269   -2.2247    0.0000 C   0  0  0  0  0  0  0  0  0  0  0  0
   -1.2897    3.4530    0.0000 C   0  0  0  0  0  0  0  0  0  0  0  0
   -3.5269    0.3735    0.0000 C   0  0  0  0  0  0  0  0  0  0  0  0
   -4.2769   -0.9256    0.0000 C   0  0  0  0  0  0  0  0  0  0  0  0
    1.7214    6.7971    0.0000 C   0  0  0  0  0  0  0  0  0  0  0  0
   -0.2093    8.5355    0.0000 C   0  0  0  0  0  0  0  0  0  0  0  0
    0.2543    7.1090    0.0000 C   0  0  0  0  0  0  0  0  0  0  0  0
    2.7253    7.9119    0.0000 C   0  0  0  0  0  0  0  0  0  0  0  0
   -2.7913    7.8437    0.0000 C   0  0  0  0  0  0  0  0  0  0  0  0
    0.7943    9.6502    0.0000 C   0  0  0  0  0  0  0  0  0  0  0  0
   -5.7769   -3.5236    0.0000 C   0  0  0  0  0  0  0  0  0  0  0  0
   -2.2866   10.2177    0.0000 C   0  0  0  0  0  0  0  0  0  0  0  0
    2.2616    9.3384    0.0000 C   0  0  0  0  0  0  0  0  0  0  0  0
   -4.0902    8.5937    0.0000 C   0  0  0  0  0  0  0  0  0  0  0  0
   -3.7784   10.0610    0.0000 C   0  0  0  0  0  0  0  0  0  0  0  0
   -6.5269   -4.8227    0.0000 C   0  0  0  0  0  0  0  0  0  0  0  0
   -8.0269   -4.8227    0.0000 C   0  0  0  0  0  0  0  0  0  0  0  0
   -8.7769   -6.1218    0.0000 C   0  0  0  0  0  0  0  0  0  0  0  0
   -8.7769   -3.5236    0.0000 C   0  0  0  0  0  0  0  0  0  0  0  0
  -10.2769   -6.1218    0.0000 C   0  0  0  0  0  0  0  0  0  0  0  0
  -10.2769   -3.5236    0.0000 C   0  0  0  0  0  0  0  0  0  0  0  0
  -11.0269   -4.8227    0.0000 C   0  0  0  0  0  0  0  0  0  0  0  0
  1 13  1  0  0  0  0
  1 17  1  0  0  0  0
  2 30  2  0  0  0  0
  3 32  2  0  0  0  0
  4 11  1  0  0  0  0
  4 13  1  0  0  0  0
  4 16  1  0  0  0  0
  5 12  1  0  0  0  0
  5 13  2  0  0  0  0
  6 14  1  0  0  0  0
  6 20  2  0  0  0  0
  7 20  1  0  0  0  0
  7 23  2  0  0  0  0
  8 20  1  0  0  0  0
  8 26  1  0  0  0  0
  9 22  1  0  0  0  0
  9 32  1  0  0  0  0
 10 27  1  0  0  0  0
 10 30  1  0  0  0  0
 10 33  1  0  0  0  0
 11 12  2  0  0  0  0
 11 14  1  0  0  0  0
 12 15  1  0  0  0  0
 14 18  2  0  0  0  0
 15 19  2  0  0  0  0
 15 21  1  0  0  0  0
 16 17  2  0  0  0  0
 18 23  1  0  0  0  0
 19 22  1  0  0  0  0
 21 24  2  0  0  0  0
 22 25  2  0  0  0  0
 24 25  1  0  0  0  0
 26 28  1  0  0  0  0
 26 29  2  0  0  0  0
 27 28  2  0  0  0  0
 27 31  1  0  0  0  0
 29 34  1  0  0  0  0
 30 35  1  0  0  0  0
 31 34  2  0  0  0  0
 32 37  1  0  0  0  0
 33 36  1  0  0  0  0
 35 36  1  0  0  0  0
 37 38  1  0  0  0  0
 38 39  2  0  0  0  0
 38 40  1  0  0  0  0
 39 41  1  0  0  0  0
 40 42  2  0  0  0  0
 41 43  2  0  0  0  0
 42 43  1  0  0  0  0
M  END
> <Value>
5.899998417198648

> <Relation>
<

> <SourceURI>
mol:CHEMBL1991429

$$$$

Generated by Molecular Materials Informatics

 13 14  0  0  0  0  0  0  0  0999 V2000
    4.2746    0.7895    0.0000 Cl  0  0  0  0  0  0  0  0  0  0  0  0
   -1.0490   -1.9241    0.0000 S   0  0  0  0  0  0  0  0  0  0  0  0
   -2.3481   -2.6741    0.0000 O   0  0  0  0  0  0  0  0  0  0  0  0
   -0.4388   -3.2945    0.0000 O   0  0  0  0  0  0  0  0  0  0  0  0
   -1.5124    1.9295    0.0000 O   0  0  0  0  0  0  0  0  0  0  0  0
   -1.9306   -0.7105    0.0000 N   0  0  0  0  0  0  0  0  0  0  0  0
    0.3775   -1.4605    0.0000 C   0  0  0  0  0  0  0  0  0  0  0  0
    0.3775    0.0395    0.0000 C   0  0  0  0  0  0  0  0  0  0  0  0
   -1.0490    0.5029    0.0000 C   0  0  0  0  0  0  0  0  0  0  0  0
    1.6766   -2.2105    0.0000 C   0  0  0  0  0  0  0  0  0  0  0  0
    1.6766    0.7895    0.0000 C   0  0  0  0  0  0  0  0  0  0  0  0
    2.9757    0.0395    0.0000 C   0  0  0  0  0  0  0  0  0  0  0  0
    2.9757   -1.4605    0.0000 C   0  0  0  0  0  0  0  0  0  0  0  0
  1 12  1  0  0  0  0
  2  3  2  0  0  0  0
  2  4  2  0  0  0  0
  2  6  1  0  0  0  0
  2  7  1  0  0  0  0
  5  9  2  0  0  0  0
  6  9  1  0  0  0  0
  7  8  1  0  0  0  0
  7 10  2  0  0  0  0
  8  9  1  0  0  0  0
  8 11  2  0  0  0  0
 10 13  1  0  0  0  0
 11 12  1  0  0  0  0
 12 13  2  0  0  0  0
M  END
> <Value>
4.499999953328896

> <Relation>
=

> <SourceURI>
mol:CHEMBL1967612

$$$$

Generated by Molecular Materials Informatics

 32 35  0  0  0  0  0  0  0  0999 V2000
   -1.8973    3.7853    0.0000 F   0  0  0  0  0  0  0  0  0  0  0  0
   -6.3973    1.1873    0.0000 F   0  0  0  0  0  0  0  0  0  0  0  0
    2.6450  -10.1914    0.0000 O   0  0  0  0  0  0  0  0  0  0  0  0
    4.5757   -8.4531    0.0000 O   0  0  0  0  0  0  0  0  0  0  0  0
    1.9108    0.4373    0.0000 N   0  0  0  0  0  0  0  0  0  0  0  0
    0.4843    2.4008    0.0000 N   0  0  0  0  0  0  0  0  0  0  0  0
    1.0245   -2.5676    0.0000 N   0  0  0  0  0  0  0  0  0  0  0  0
    4.5090    1.9373    0.0000 N   0  0  0  0  0  0  0  0  0  0  0  0
   -0.9063   -4.3060    0.0000 N   0  0  0  0  0  0  0  0  0  0  0  0
    1.5647   -5.1089    0.0000 N   0  0  0  0  0  0  0  0  0  0  0  0
    0.4843   -0.0263    0.0000 C   0  0  0  0  0  0  0  0  0  0  0  0
   -0.3973    1.1873    0.0000 C   0  0  0  0  0  0  0  0  0  0  0  0
    1.9108    1.9373    0.0000 C   0  0  0  0  0  0  0  0  0  0  0  0
    0.0208   -1.4529    0.0000 C   0  0  0  0  0  0  0  0  0  0  0  0
   -1.8973    1.1873    0.0000 C   0  0  0  0  0  0  0  0  0  0  0  0
    3.2099    2.6873    0.0000 C   0  0  0  0  0  0  0  0  0  0  0  0
    3.2099   -0.3127    0.0000 C   0  0  0  0  0  0  0  0  0  0  0  0
   -2.6473    2.4862    0.0000 C   0  0  0  0  0  0  0  0  0  0  0  0
   -1.4464   -1.7647    0.0000 C   0  0  0  0  0  0  0  0  0  0  0  0
   -2.6473   -0.1118    0.0000 C   0  0  0  0  0  0  0  0  0  0  0  0
    4.5090    0.4373    0.0000 C   0  0  0  0  0  0  0  0  0  0  0  0
    0.5608   -3.9941    0.0000 C   0  0  0  0  0  0  0  0  0  0  0  0
   -4.1473    2.4862    0.0000 C   0  0  0  0  0  0  0  0  0  0  0  0
   -4.1473   -0.1118    0.0000 C   0  0  0  0  0  0  0  0  0  0  0  0
   -4.8973    1.1873    0.0000 C   0  0  0  0  0  0  0  0  0  0  0  0
   -1.9101   -3.1914    0.0000 C   0  0  0  0  0  0  0  0  0  0  0  0
    3.2099    4.1873    0.0000 C   0  0  0  0  0  0  0  0  0  0  0  0
    2.1048   -7.6501    0.0000 C   0  0  0  0  0  0  0  0  0  0  0  0
    1.1010   -6.5354    0.0000 C   0  0  0  0  0  0  0  0  0  0  0  0
    3.1085   -8.7649    0.0000 C   0  0  0  0  0  0  0  0  0  0  0  0
    3.2196   -6.6465    0.0000 C   0  0  0  0  0  0  0  0  0  0  0  0
    0.9901   -8.6540    0.0000 C   0  0  0  0  0  0  0  0  0  0  0  0
  1 18  1  0  0  0  0
  2 25  1  0  0  0  0
  3 30  2  0  0  0  0
  4 30  1  0  0  0  0
  5 11  1  0  0  0  0
  5 13  1  0  0  0  0
  5 17  1  0  0  0  0
  6 12  1  0  0  0  0
  6 13  2  0  0  0  0
  7 14  1  0  0  0  0
  7 22  2  0  0  0  0
  8 16  2  0  0  0  0
  8 21  1  0  0  0  0
  9 22  1  0  0  0  0
  9 26  2  0  0  0  0
 10 22  1  0  0  0  0
 10 29  1  0  0  0  0
 11 12  2  0  0  0  0
 11 14  1  0  0  0  0
 12 15  1  0  0  0  0
 13 16  1  0  0  0  0
 14 19  2  0  0  0  0
 15 18  1  0  0  0  0
 15 20  2  0  0  0  0
 16 27  1  0  0  0  0
 17 21  2  0  0  0  0
 18 23  2  0  0  0  0
 19 26  1  0  0  0  0
 20 24  1  0  0  0  0
 23 25  1  0  0  0  0
 24 25  2  0  0  0  0
 28 29  1  0  0  0  0
 28 30  1  0  0  0  0
 28 31  1  0  0  0  0
 28 32  1  0  0  0  0
M  END
> <Value>
5.899998417198648

> <Relation>
<

> <SourceURI>
mol:CHEMBL1971149

$$$$

Generated by Molecular Materials Informatics

 17 19  0  0  0  0  0  0  0  0999 V2000
    2.0803   -3.3452    0.0000 O   0  0  0  0  0  0  0  0  0  0  0  0
    3.4812    1.2923    0.0000 N   0  0  0  0  0  0  0  0  0  0  0  0
    4.2312   -1.9937    0.0000 N   0  0  0  0  0  0  0  0  0  0  0  0
    1.7959   -0.8210    0.0000 C   0  0  0  0  0  0  0  0  0  0  0  0
    4.8327    0.6414    0.0000 C   0  0  0  0  0  0  0  0  0  0  0  0
    5.1663   -0.8210    0.0000 C   0  0  0  0  0  0  0  0  0  0  0  0
    2.1298    0.6414    0.0000 C   0  0  0  0  0  0  0  0  0  0  0  0
    2.7312   -1.9937    0.0000 C   0  0  0  0  0  0  0  0  0  0  0  0
    6.5998   -1.2632    0.0000 C   0  0  0  0  0  0  0  0  0  0  0  0
    5.9321    1.6618    0.0000 C   0  0  0  0  0  0  0  0  0  0  0  0
    0.3625   -1.2632    0.0000 C   0  0  0  0  0  0  0  0  0  0  0  0
    1.0301    1.6618    0.0000 C   0  0  0  0  0  0  0  0  0  0  0  0
    7.6994   -0.2428    0.0000 C   0  0  0  0  0  0  0  0  0  0  0  0
    7.3656    1.2196    0.0000 C   0  0  0  0  0  0  0  0  0  0  0  0
   -0.7370   -0.2428    0.0000 C   0  0  0  0  0  0  0  0  0  0  0  0
   -0.4032    1.2196    0.0000 C   0  0  0  0  0  0  0  0  0  0  0  0
    9.1327   -0.6850    0.0000 C   0  0  0  0  0  0  0  0  0  0  0  0
  1  8  2  0  0  0  0
  2  5  1  0  0  0  0
  2  7  1  0  0  0  0
  3  6  1  0  0  0  0
  3  8  1  0  0  0  0
  4  7  1  0  0  0  0
  4  8  1  0  0  0  0
  4 11  2  0  0  0  0
  5  6  1  0  0  0  0
  5 10  2  0  0  0  0
  6  9  2  0  0  0  0
  7 12  2  0  0  0  0
  9 13  1  0  0  0  0
 10 14  1  0  0  0  0
 11 15  1  0  0  0  0
 12 16  1  0  0  0  0
 13 14  2  0  0  0  0
 13 17  1  0  0  0  0
 15 16  2  0  0  0  0
M  END
> <Value>
5.899998417198648

> <Relation>
<

> <SourceURI>
mol:CHEMBL1999714

$$$$

Generated by Molecular Materials Informatics

 33 37  0  0  0  0  0  0  0  0999 V2000
   -2.0266    2.6122    0.0000 F   0  0  0  0  0  0  0  0  0  0  0  0
   -6.5266    0.0142    0.0000 F   0  0  0  0  0  0  0  0  0  0  0  0
    4.9099   -8.1996    0.0000 O   0  0  0  0  0  0  0  0  0  0  0  0
    1.7816   -0.7358    0.0000 N   0  0  0  0  0  0  0  0  0  0  0  0
    0.3550    1.2277    0.0000 N   0  0  0  0  0  0  0  0  0  0  0  0
    4.3797    0.7642    0.0000 N   0  0  0  0  0  0  0  0  0  0  0  0
    0.8952   -3.7407    0.0000 N   0  0  0  0  0  0  0  0  0  0  0  0
   -1.0355   -5.4791    0.0000 N   0  0  0  0  0  0  0  0  0  0  0  0
    1.4354   -6.2820    0.0000 N   0  0  0  0  0  0  0  0  0  0  0  0
    0.3550   -1.1994    0.0000 C   0  0  0  0  0  0  0  0  0  0  0  0
   -0.5266    0.0142    0.0000 C   0  0  0  0  0  0  0  0  0  0  0  0
    1.7816    0.7642    0.0000 C   0  0  0  0  0  0  0  0  0  0  0  0
   -0.1084   -2.6260    0.0000 C   0  0  0  0  0  0  0  0  0  0  0  0
   -2.0266    0.0142    0.0000 C   0  0  0  0  0  0  0  0  0  0  0  0
    3.0807    1.5142    0.0000 C   0  0  0  0  0  0  0  0  0  0  0  0
    3.0807   -1.4858    0.0000 C   0  0  0  0  0  0  0  0  0  0  0  0
   -2.7766    1.3131    0.0000 C   0  0  0  0  0  0  0  0  0  0  0  0
    3.0807    3.0142    0.0000 C   0  0  0  0  0  0  0  0  0  0  0  0
   -2.7766   -1.2849    0.0000 C   0  0  0  0  0  0  0  0  0  0  0  0
   -1.5757   -2.9378    0.0000 C   0  0  0  0  0  0  0  0  0  0  0  0
    4.3797   -0.7358    0.0000 C   0  0  0  0  0  0  0  0  0  0  0  0
    0.4316   -5.1672    0.0000 C   0  0  0  0  0  0  0  0  0  0  0  0
    1.7816    3.7642    0.0000 C   0  0  0  0  0  0  0  0  0  0  0  0
   -4.2766    1.3131    0.0000 C   0  0  0  0  0  0  0  0  0  0  0  0
   -4.2766   -1.2849    0.0000 C   0  0  0  0  0  0  0  0  0  0  0  0
   -5.0266    0.0142    0.0000 C   0  0  0  0  0  0  0  0  0  0  0  0
   -2.0393   -4.3645    0.0000 C   0  0  0  0  0  0  0  0  0  0  0  0
    0.2816    3.7642    0.0000 C   0  0  0  0  0  0  0  0  0  0  0  0
    1.0316    5.0631    0.0000 C   0  0  0  0  0  0  0  0  0  0  0  0
    2.9027   -5.9702    0.0000 C   0  0  0  0  0  0  0  0  0  0  0  0
    3.9063   -7.0849    0.0000 C   0  0  0  0  0  0  0  0  0  0  0  0
    5.0210   -6.0811    0.0000 C   0  0  0  0  0  0  0  0  0  0  0  0
    2.7916   -8.0885    0.0000 C   0  0  0  0  0  0  0  0  0  0  0  0
  1 17  1  0  0  0  0
  2 26  1  0  0  0  0
  3 31  1  0  0  0  0
  4 10  1  0  0  0  0
  4 12  1  0  0  0  0
  4 16  1  0  0  0  0
  5 11  1  0  0  0  0
  5 12  2  0  0  0  0
  6 15  2  0  0  0  0
  6 21  1  0  0  0  0
  7 13  2  0  0  0  0
  7 22  1  0  0  0  0
  8 22  2  0  0  0  0
  8 27  1  0  0  0  0
  9 22  1  0  0  0  0
  9 30  1  0  0  0  0
 10 11  2  0  0  0  0
 10 13  1  0  0  0  0
 11 14  1  0  0  0  0
 12 15  1  0  0  0  0
 13 20  1  0  0  0  0
 14 17  1  0  0  0  0
 14 19  2  0  0  0  0
 15 18  1  0  0  0  0
 16 21  2  0  0  0  0
 17 24  2  0  0  0  0
 18 23  1  0  0  0  0
 19 25  1  0  0  0  0
 20 27  2  0  0  0  0
 23 28  1  0  0  0  0
 23 29  1  0  0  0  0
 24 26  1  0  0  0  0
 25 26  2  0  0  0  0
 28 29  1  0  0  0  0
 30 31  1  0  0  0  0
 31 32  1  0  0  0  0
 31 33  1  0  0  0  0
M  END
> <Value>
5.899998417198648

> <Relation>
<

> <SourceURI>
mol:CHEMBL1994040

$$$$

Generated by Molecular Materials Informatics

 35 42  0  0  0  0  0  0  0  0999 V2000
    5.5902    2.8256    0.0000 O   0  0  0  0  0  0  0  0  0  0  0  0
    8.0371    5.4818    0.0000 O   0  0  0  0  0  0  0  0  0  0  0  0
    2.9894   -4.4328    0.0000 O   0  0  0  0  0  0  0  0  0  0  0  0
    7.4046    1.3348    0.0000 N   0  0  0  0  0  0  0  0  0  0  0  0
    3.9474    1.2296    0.0000 N   0  0  0  0  0  0  0  0  0  0  0  0
    5.6256   -4.8744    0.0000 N   0  0  0  0  0  0  0  0  0  0  0  0
    5.3131    6.9092    0.0000 N   0  0  0  0  0  0  0  0  0  0  0  0
    6.4485    0.0615    0.0000 C   0  0  0  0  0  0  0  0  0  0  0  0
    4.9122   -0.0022    0.0000 C   0  0  0  0  0  0  0  0  0  0  0  0
    7.2441   -1.2374    0.0000 C   0  0  0  0  0  0  0  0  0  0  0  0
    4.0852   -1.2681    0.0000 C   0  0  0  0  0  0  0  0  0  0  0  0
    6.9565    2.9789    0.0000 C   0  0  0  0  0  0  0  0  0  0  0  0
    4.8962   -2.5597    0.0000 C   0  0  0  0  0  0  0  0  0  0  0  0
    6.3960   -2.5731    0.0000 C   0  0  0  0  0  0  0  0  0  0  0  0
    8.8920    0.6789    0.0000 C   0  0  0  0  0  0  0  0  0  0  0  0
    8.7524   -0.8147    0.0000 C   0  0  0  0  0  0  0  0  0  0  0  0
    2.5846   -0.8554    0.0000 C   0  0  0  0  0  0  0  0  0  0  0  0
    2.4902    0.6414    0.0000 C   0  0  0  0  0  0  0  0  0  0  0  0
    4.2381    2.8591    0.0000 C   0  0  0  0  0  0  0  0  0  0  0  0
    6.7856    4.6552    0.0000 C   0  0  0  0  0  0  0  0  0  0  0  0
    4.4201   -3.9821    0.0000 C   0  0  0  0  0  0  0  0  0  0  0  0
    5.4146    5.4128    0.0000 C   0  0  0  0  0  0  0  0  0  0  0  0
    4.1721    4.4875    0.0000 C   0  0  0  0  0  0  0  0  0  0  0  0
    6.8468   -4.0036    0.0000 C   0  0  0  0  0  0  0  0  0  0  0  0
   10.2550    1.3047    0.0000 C   0  0  0  0  0  0  0  0  0  0  0  0
    9.9757   -1.6823    0.0000 C   0  0  0  0  0  0  0  0  0  0  0  0
    8.4311    3.2531    0.0000 C   0  0  0  0  0  0  0  0  0  0  0  0
    1.3355   -1.6857    0.0000 C   0  0  0  0  0  0  0  0  0  0  0  0
    1.1466    1.3081    0.0000 C   0  0  0  0  0  0  0  0  0  0  0  0
   11.4785    0.4371    0.0000 C   0  0  0  0  0  0  0  0  0  0  0  0
   11.3389   -1.0565    0.0000 C   0  0  0  0  0  0  0  0  0  0  0  0
   -0.0082   -1.0190    0.0000 C   0  0  0  0  0  0  0  0  0  0  0  0
   -0.1026    0.4778    0.0000 C   0  0  0  0  0  0  0  0  0  0  0  0
    7.9470    6.9790    0.0000 C   0  0  0  0  0  0  0  0  0  0  0  0
    3.9665    7.5697    0.0000 C   0  0  0  0  0  0  0  0  0  0  0  0
  1 12  1  0  0  0  0
  1 19  1  0  0  0  0
  2 20  1  0  0  0  0
  2 34  1  0  0  0  0
  3 21  2  0  0  0  0
  4  8  1  0  0  0  0
  4 12  1  0  0  0  0
  4 15  1  0  0  0  0
  5  9  1  0  0  0  0
  5 18  1  0  0  0  0
  5 19  1  0  0  0  0
  6 21  1  0  0  0  0
  6 24  1  0  0  0  0
  7 22  1  0  0  0  0
  7 35  1  0  0  0  0
  8  9  2  0  0  0  0
  8 10  1  0  0  0  0
  9 11  1  0  0  0  0
 10 14  2  0  0  0  0
 10 16  1  0  0  0  0
 11 13  2  0  0  0  0
 11 17  1  0  0  0  0
 12 20  1  0  0  0  0
 12 27  1  0  0  0  0
 13 14  1  0  0  0  0
 13 21  1  0  0  0  0
 14 24  1  0  0  0  0
 15 16  1  0  0  0  0
 15 25  2  0  0  0  0
 16 26  2  0  0  0  0
 17 18  1  0  0  0  0
 17 28  2  0  0  0  0
 18 29  2  0  0  0  0
 19 23  1  0  0  0  0
 20 22  1  0  0  0  0
 22 23  1  0  0  0  0
 25 30  1  0  0  0  0
 26 31  1  0  0  0  0
 28 32  1  0  0  0  0
 29 33  1  0  0  0  0
 30 31  2  0  0  0  0
 32 33  2  0  0  0  0
M  END
> <Value>
8.698970004336019

> <Relation>
=

> <SourceURI>
mol:CHEMBL1980995

$$$$

Generated by Molecular Materials Informatics

 41 45  0  0  0  0  0  0  0  0999 V2000
   -7.7384   -0.7240    0.0000 S   0  0  0  0  0  0  0  0  0  0  0  0
   -0.9300    2.6241    0.0000 O   0  0  0  0  0  0  0  0  0  0  0  0
    0.5700   -2.5721    0.0000 O   0  0  0  0  0  0  0  0  0  0  0  0
  -13.9356    2.8600    0.0000 O   0  0  0  0  0  0  0  0  0  0  0  0
    3.7016   -2.4866    0.0000 N   0  0  0  0  0  0  0  0  0  0  0  0
   -7.1146    3.7105    0.0000 N   0  0  0  0  0  0  0  0  0  0  0  0
    0.5700    0.0260    0.0000 N   0  0  0  0  0  0  0  0  0  0  0  0
   -4.5733    3.1703    0.0000 N   0  0  0  0  0  0  0  0  0  0  0  0
  -13.1327    0.3890    0.0000 N   0  0  0  0  0  0  0  0  0  0  0  0
  -16.2978   -2.0051    0.0000 N   0  0  0  0  0  0  0  0  0  0  0  0
   -6.3118    1.2396    0.0000 C   0  0  0  0  0  0  0  0  0  0  0  0
   -5.4300    0.0260    0.0000 C   0  0  0  0  0  0  0  0  0  0  0  0
   -7.7384    0.7760    0.0000 C   0  0  0  0  0  0  0  0  0  0  0  0
   -3.9300    0.0260    0.0000 C   0  0  0  0  0  0  0  0  0  0  0  0
   -5.9998    2.7067    0.0000 C   0  0  0  0  0  0  0  0  0  0  0  0
   -8.8531    1.7798    0.0000 C   0  0  0  0  0  0  0  0  0  0  0  0
   -6.3118   -1.1875    0.0000 C   0  0  0  0  0  0  0  0  0  0  0  0
    2.8200   -1.2730    0.0000 C   0  0  0  0  0  0  0  0  0  0  0  0
    5.1282   -2.0230    0.0000 C   0  0  0  0  0  0  0  0  0  0  0  0
   -0.9300    0.0260    0.0000 C   0  0  0  0  0  0  0  0  0  0  0  0
   -3.1800    1.3250    0.0000 C   0  0  0  0  0  0  0  0  0  0  0  0
   -1.6800    1.3250    0.0000 C   0  0  0  0  0  0  0  0  0  0  0  0
    5.1282   -0.5230    0.0000 C   0  0  0  0  0  0  0  0  0  0  0  0
   -3.1800   -1.2730    0.0000 C   0  0  0  0  0  0  0  0  0  0  0  0
   -8.5411    3.2469    0.0000 C   0  0  0  0  0  0  0  0  0  0  0  0
    1.3200   -1.2730    0.0000 C   0  0  0  0  0  0  0  0  0  0  0  0
    3.7016   -0.0595    0.0000 C   0  0  0  0  0  0  0  0  0  0  0  0
   -1.6800   -1.2730    0.0000 C   0  0  0  0  0  0  0  0  0  0  0  0
  -10.2796    1.3161    0.0000 C   0  0  0  0  0  0  0  0  0  0  0  0
    6.4273   -2.7730    0.0000 C   0  0  0  0  0  0  0  0  0  0  0  0
    6.4273    0.2270    0.0000 C   0  0  0  0  0  0  0  0  0  0  0  0
    3.2382   -3.9131    0.0000 C   0  0  0  0  0  0  0  0  0  0  0  0
    7.7264   -2.0230    0.0000 C   0  0  0  0  0  0  0  0  0  0  0  0
    7.7264   -0.5230    0.0000 C   0  0  0  0  0  0  0  0  0  0  0  0
  -11.3944    2.3200    0.0000 C   0  0  0  0  0  0  0  0  0  0  0  0
  -12.8209    1.8563    0.0000 C   0  0  0  0  0  0  0  0  0  0  0  0
   -1.6800    3.9230    0.0000 C   0  0  0  0  0  0  0  0  0  0  0  0
  -14.5595   -0.0744    0.0000 C   0  0  0  0  0  0  0  0  0  0  0  0
  -14.8713   -1.5417    0.0000 C   0  0  0  0  0  0  0  0  0  0  0  0
  -16.6096   -3.4724    0.0000 C   0  0  0  0  0  0  0  0  0  0  0  0
  -17.4126   -1.0015    0.0000 C   0  0  0  0  0  0  0  0  0  0  0  0
  1 13  1  0  0  0  0
  1 17  1  0  0  0  0
  2 22  1  0  0  0  0
  2 37  1  0  0  0  0
  3 26  2  0  0  0  0
  4 36  2  0  0  0  0
  5 18  1  0  0  0  0
  5 19  1  0  0  0  0
  5 32  1  0  0  0  0
  6 15  1  0  0  0  0
  6 25  2  0  0  0  0
  7 20  1  0  0  0  0
  7 26  1  0  0  0  0
  8 15  1  0  0  0  0
  9 36  1  0  0  0  0
  9 38  1  0  0  0  0
 10 39  1  0  0  0  0
 10 40  1  0  0  0  0
 10 41  1  0  0  0  0
 11 12  1  0  0  0  0
 11 13  1  0  0  0  0
 11 15  2  0  0  0  0
 12 14  1  0  0  0  0
 12 17  2  0  0  0  0
 13 16  2  0  0  0  0
 14 21  1  0  0  0  0
 14 24  2  0  0  0  0
 16 25  1  0  0  0  0
 29 16  1  0  0  0  0
 18 26  1  0  0  0  0
 18 27  2  0  0  0  0
 19 23  1  0  0  0  0
 19 30  2  0  0  0  0
 20 22  1  0  0  0  0
 20 28  2  0  0  0  0
 21 22  2  0  0  0  0
 23 27  1  0  0  0  0
 23 31  2  0  0  0  0
 24 28  1  0  0  0  0
 29 35  2  0  0  0  0
 30 33  1  0  0  0  0
 31 34  1  0  0  0  0
 33 34  2  0  0  0  0
 35 36  1  0  0  0  0
 38 39  1  0  0  0  0
M  END
> <Value>
5.300000202445418

> <Relation>
<

> <SourceURI>
mol:CHEMBL1989267

$$$$

Generated by Molecular Materials Informatics

 36 40  0  0  0  0  0  0  0  0999 V2000
  -12.5983   -8.5333    0.0000 Cl  0  0  0  0  0  0  0  0  0  0  0  0
   -8.2732   -3.6299    0.0000 O   0  0  0  0  0  0  0  0  0  0  0  0
   -1.4007   -3.4971    0.0000 O   0  0  0  0  0  0  0  0  0  0  0  0
    2.4608    2.4069    0.0000 N   0  0  0  0  0  0  0  0  0  0  0  0
   -1.3241   -7.4650    0.0000 N   0  0  0  0  0  0  0  0  0  0  0  0
   -9.6640   -7.9097    0.0000 N   0  0  0  0  0  0  0  0  0  0  0  0
   -0.4738   -0.6439    0.0000 N   0  0  0  0  0  0  0  0  0  0  0  0
   -7.7332   -6.1711    0.0000 C   0  0  0  0  0  0  0  0  0  0  0  0
   -5.2623   -6.9740    0.0000 C   0  0  0  0  0  0  0  0  0  0  0  0
   -8.7369   -5.0564    0.0000 C   0  0  0  0  0  0  0  0  0  0  0  0
   -3.7950   -6.6620    0.0000 C   0  0  0  0  0  0  0  0  0  0  0  0
    3.8873    0.4434    0.0000 C   0  0  0  0  0  0  0  0  0  0  0  0
   -6.2660   -5.8593    0.0000 C   0  0  0  0  0  0  0  0  0  0  0  0
   -8.1967   -7.5977    0.0000 C   0  0  0  0  0  0  0  0  0  0  0  0
    2.4608   -0.0202    0.0000 C   0  0  0  0  0  0  0  0  0  0  0  0
    3.8873    1.9434    0.0000 C   0  0  0  0  0  0  0  0  0  0  0  0
  -10.2041   -5.3682    0.0000 C   0  0  0  0  0  0  0  0  0  0  0  0
   -5.7258   -8.4006    0.0000 C   0  0  0  0  0  0  0  0  0  0  0  0
   -7.1930   -8.7124    0.0000 C   0  0  0  0  0  0  0  0  0  0  0  0
   -3.3314   -5.2355    0.0000 C   0  0  0  0  0  0  0  0  0  0  0  0
    1.5791    1.1934    0.0000 C   0  0  0  0  0  0  0  0  0  0  0  0
   -1.8643   -4.9237    0.0000 C   0  0  0  0  0  0  0  0  0  0  0  0
   -2.7912   -7.7768    0.0000 C   0  0  0  0  0  0  0  0  0  0  0  0
    1.9973   -1.4468    0.0000 C   0  0  0  0  0  0  0  0  0  0  0  0
    5.1864   -0.3066    0.0000 C   0  0  0  0  0  0  0  0  0  0  0  0
  -10.6676   -6.7950    0.0000 C   0  0  0  0  0  0  0  0  0  0  0  0
    5.1864    2.6934    0.0000 C   0  0  0  0  0  0  0  0  0  0  0  0
  -11.2078   -4.2535    0.0000 C   0  0  0  0  0  0  0  0  0  0  0  0
    0.5300   -1.7586    0.0000 C   0  0  0  0  0  0  0  0  0  0  0  0
   -0.8605   -6.0384    0.0000 C   0  0  0  0  0  0  0  0  0  0  0  0
  -12.1349   -7.1068    0.0000 C   0  0  0  0  0  0  0  0  0  0  0  0
    6.4855    0.4434    0.0000 C   0  0  0  0  0  0  0  0  0  0  0  0
    6.4855    1.9434    0.0000 C   0  0  0  0  0  0  0  0  0  0  0  0
    0.0664   -3.1853    0.0000 C   0  0  0  0  0  0  0  0  0  0  0  0
  -12.6751   -4.5655    0.0000 C   0  0  0  0  0  0  0  0  0  0  0  0
  -13.1385   -5.9920    0.0000 C   0  0  0  0  0  0  0  0  0  0  0  0
  1 31  1  0  0  0  0
  2 10  2  0  0  0  0
  3 22  1  0  0  0  0
  3 34  1  0  0  0  0
  4 16  1  0  0  0  0
  4 21  1  0  0  0  0
  5 23  2  0  0  0  0
  5 30  1  0  0  0  0
  6 14  1  0  0  0  0
  7 29  1  0  0  0  0
  8 10  1  0  0  0  0
  8 13  2  0  0  0  0
  8 14  1  0  0  0  0
  9 11  1  0  0  0  0
  9 13  1  0  0  0  0
  9 18  2  0  0  0  0
 10 17  1  0  0  0  0
 11 20  2  0  0  0  0
 11 23  1  0  0  0  0
 12 15  1  0  0  0  0
 12 16  1  0  0  0  0
 12 25  2  0  0  0  0
 14 19  2  0  0  0  0
 15 21  2  0  0  0  0
 15 24  1  0  0  0  0
 16 27  2  0  0  0  0
 17 26  1  0  0  0  0
 17 28  2  0  0  0  0
 18 19  1  0  0  0  0
 20 22  1  0  0  0  0
 22 30  2  0  0  0  0
 24 29  1  0  0  0  0
 25 32  1  0  0  0  0
 26 31  2  0  0  0  0
 27 33  1  0  0  0  0
 28 35  1  0  0  0  0
 29 34  1  0  0  0  0
 31 36  1  0  0  0  0
 32 33  2  0  0  0  0
 35 36  2  0  0  0  0
M  END
> <Value>
5.899998417198648

> <Relation>
<

> <SourceURI>
mol:CHEMBL1973348

$$$$

Generated by Molecular Materials Informatics

 19 21  0  0  0  0  0  0  0  0999 V2000
    0.4097   -3.9455    0.0000 O   0  0  0  0  0  0  0  0  0  0  0  0
   -2.0612   -3.1425    0.0000 O   0  0  0  0  0  0  0  0  0  0  0  0
   -1.0121   -0.1905    0.0000 N   0  0  0  0  0  0  0  0  0  0  0  0
   -0.1304    1.0229    0.0000 N   0  0  0  0  0  0  0  0  0  0  0  0
    5.1932    1.3095    0.0000 N   0  0  0  0  0  0  0  0  0  0  0  0
   -0.1304   -1.4042    0.0000 C   0  0  0  0  0  0  0  0  0  0  0  0
    1.2961   -0.9405    0.0000 C   0  0  0  0  0  0  0  0  0  0  0  0
    1.2961    0.5595    0.0000 C   0  0  0  0  0  0  0  0  0  0  0  0
   -2.5121   -0.1905    0.0000 C   0  0  0  0  0  0  0  0  0  0  0  0
   -0.5939   -2.8307    0.0000 C   0  0  0  0  0  0  0  0  0  0  0  0
    2.5952   -1.6905    0.0000 C   0  0  0  0  0  0  0  0  0  0  0  0
    2.5952    1.3095    0.0000 C   0  0  0  0  0  0  0  0  0  0  0  0
    3.8943    0.5595    0.0000 C   0  0  0  0  0  0  0  0  0  0  0  0
    3.8943   -0.9405    0.0000 C   0  0  0  0  0  0  0  0  0  0  0  0
   -3.2621   -1.4896    0.0000 C   0  0  0  0  0  0  0  0  0  0  0  0
   -3.2621    1.1084    0.0000 C   0  0  0  0  0  0  0  0  0  0  0  0
   -4.7621   -1.4896    0.0000 C   0  0  0  0  0  0  0  0  0  0  0  0
   -4.7621    1.1084    0.0000 C   0  0  0  0  0  0  0  0  0  0  0  0
   -5.5121   -0.1905    0.0000 C   0  0  0  0  0  0  0  0  0  0  0  0
  1 10  2  0  0  0  0
  2 10  1  0  0  0  0
  3  4  1  0  0  0  0
  3  6  1  0  0  0  0
  3  9  1  0  0  0  0
  4  8  2  0  0  0  0
  5 13  1  0  0  0  0
  6  7  2  0  0  0  0
  6 10  1  0  0  0  0
  7  8  1  0  0  0  0
  7 11  1  0  0  0  0
  8 12  1  0  0  0  0
  9 15  2  0  0  0  0
  9 16  1  0  0  0  0
 11 14  2  0  0  0  0
 12 13  2  0  0  0  0
 13 14  1  0  0  0  0
 15 17  1  0  0  0  0
 16 18  2  0  0  0  0
 17 19  2  0  0  0  0
 18 19  1  0  0  0  0
M  END
> <Value>
5.300000202445418

> <Relation>
<

> <SourceURI>
mol:CHEMBL1974574

$$$$

Generated by Molecular Materials Informatics

 30 32  0  0  0  0  0  0  0  0999 V2000
   -0.4546   -3.5625    0.0000 O   0  0  0  0  0  0  0  0  0  0  0  0
   -3.0527    3.9374    0.0000 O   0  0  0  0  0  0  0  0  0  0  0  0
    0.8443   -1.3125    0.0000 N   0  0  0  0  0  0  0  0  0  0  0  0
    3.4424   -1.3125    0.0000 N   0  0  0  0  0  0  0  0  0  0  0  0
    8.6385   -7.3124    0.0000 N   0  0  0  0  0  0  0  0  0  0  0  0
    8.6385   -1.3125    0.0000 N   0  0  0  0  0  0  0  0  0  0  0  0
    2.1434   -3.5625    0.0000 C   0  0  0  0  0  0  0  0  0  0  0  0
    3.4424   -2.8125    0.0000 C   0  0  0  0  0  0  0  0  0  0  0  0
    4.7415   -5.0625    0.0000 C   0  0  0  0  0  0  0  0  0  0  0  0
    0.8443   -2.8125    0.0000 C   0  0  0  0  0  0  0  0  0  0  0  0
    4.7415   -3.5625    0.0000 C   0  0  0  0  0  0  0  0  0  0  0  0
    2.1434   -5.0625    0.0000 C   0  0  0  0  0  0  0  0  0  0  0  0
    6.0404   -5.8124    0.0000 C   0  0  0  0  0  0  0  0  0  0  0  0
    3.4424   -5.8124    0.0000 C   0  0  0  0  0  0  0  0  0  0  0  0
   -0.4546   -0.5625    0.0000 C   0  0  0  0  0  0  0  0  0  0  0  0
   -0.4546    0.9375    0.0000 C   0  0  0  0  0  0  0  0  0  0  0  0
    6.0404   -7.3124    0.0000 C   0  0  0  0  0  0  0  0  0  0  0  0
    7.3395   -5.0625    0.0000 C   0  0  0  0  0  0  0  0  0  0  0  0
   -1.7537    1.6874    0.0000 C   0  0  0  0  0  0  0  0  0  0  0  0
   -1.7537    3.1874    0.0000 C   0  0  0  0  0  0  0  0  0  0  0  0
    0.8443    1.6874    0.0000 C   0  0  0  0  0  0  0  0  0  0  0  0
    4.7415   -0.5625    0.0000 C   0  0  0  0  0  0  0  0  0  0  0  0
    7.3395   -8.0624    0.0000 C   0  0  0  0  0  0  0  0  0  0  0  0
    8.6385   -5.8124    0.0000 C   0  0  0  0  0  0  0  0  0  0  0  0
   -0.4546    3.9374    0.0000 C   0  0  0  0  0  0  0  0  0  0  0  0
    0.8443    3.1874    0.0000 C   0  0  0  0  0  0  0  0  0  0  0  0
   -1.7537   -1.3125    0.0000 C   0  0  0  0  0  0  0  0  0  0  0  0
    6.0404   -1.3125    0.0000 C   0  0  0  0  0  0  0  0  0  0  0  0
   -4.3516    3.1874    0.0000 C   0  0  0  0  0  0  0  0  0  0  0  0
    7.3395   -0.5625    0.0000 C   0  0  0  0  0  0  0  0  0  0  0  0
  1 10  2  0  0  0  0
  2 20  1  0  0  0  0
  2 29  1  0  0  0  0
  3 10  1  0  0  0  0
  3 15  1  0  0  0  0
  4  8  1  0  0  0  0
  4 22  1  0  0  0  0
  5 23  2  0  0  0  0
  5 24  1  0  0  0  0
  6 30  1  0  0  0  0
  7  8  1  0  0  0  0
  7 10  1  0  0  0  0
  7 12  2  0  0  0  0
  8 11  2  0  0  0  0
  9 11  1  0  0  0  0
  9 13  1  0  0  0  0
  9 14  2  0  0  0  0
 12 14  1  0  0  0  0
 13 17  2  0  0  0  0
 13 18  1  0  0  0  0
 15 16  1  0  0  0  0
 15 27  1  0  0  0  0
 16 19  2  0  0  0  0
 16 21  1  0  0  0  0
 17 23  1  0  0  0  0
 18 24  2  0  0  0  0
 19 20  1  0  0  0  0
 20 25  2  0  0  0  0
 21 26  2  0  0  0  0
 22 28  1  0  0  0  0
 25 26  1  0  0  0  0
 28 30  1  0  0  0  0
M  END
> <Value>
5.899998417198648

> <Relation>
<

> <SourceURI>
mol:CHEMBL2006188

$$$$

Generated by Molecular Materials Informatics

 39 42  0  0  0  0  0  0  0  0999 V2000
    2.6486    4.2771    0.0000 O   0  0  0  0  0  0  0  0  0  0  0  0
    6.3615   -1.2454    0.0000 O   0  0  0  0  0  0  0  0  0  0  0  0
    1.1115    0.0537    0.0000 N   0  0  0  0  0  0  0  0  0  0  0  0
   -0.3803    0.2104    0.0000 N   0  0  0  0  0  0  0  0  0  0  0  0
    3.1888    1.7358    0.0000 N   0  0  0  0  0  0  0  0  0  0  0  0
    5.1195    3.4742    0.0000 N   0  0  0  0  0  0  0  0  0  0  0  0
    6.3615   -3.8436    0.0000 N   0  0  0  0  0  0  0  0  0  0  0  0
   10.1115   -5.1425    0.0000 N   0  0  0  0  0  0  0  0  0  0  0  0
    1.7215    1.4238    0.0000 C   0  0  0  0  0  0  0  0  0  0  0  0
   -0.6921    1.6777    0.0000 C   0  0  0  0  0  0  0  0  0  0  0  0
    1.8615   -1.2454    0.0000 C   0  0  0  0  0  0  0  0  0  0  0  0
    0.6068    2.4277    0.0000 C   0  0  0  0  0  0  0  0  0  0  0  0
   -2.0625    2.2877    0.0000 C   0  0  0  0  0  0  0  0  0  0  0  0
    3.3615   -1.2454    0.0000 C   0  0  0  0  0  0  0  0  0  0  0  0
    4.1115   -2.5445    0.0000 C   0  0  0  0  0  0  0  0  0  0  0  0
    1.1115   -2.5445    0.0000 C   0  0  0  0  0  0  0  0  0  0  0  0
    3.6523    3.1624    0.0000 C   0  0  0  0  0  0  0  0  0  0  0  0
    5.5832    4.9007    0.0000 C   0  0  0  0  0  0  0  0  0  0  0  0
    7.0503    5.2127    0.0000 C   0  0  0  0  0  0  0  0  0  0  0  0
    7.5139    6.6393    0.0000 C   0  0  0  0  0  0  0  0  0  0  0  0
    3.3615   -3.8436    0.0000 C   0  0  0  0  0  0  0  0  0  0  0  0
    1.8615   -3.8436    0.0000 C   0  0  0  0  0  0  0  0  0  0  0  0
    5.6115   -2.5445    0.0000 C   0  0  0  0  0  0  0  0  0  0  0  0
   -3.4328    2.8978    0.0000 C   0  0  0  0  0  0  0  0  0  0  0  0
   -1.4525    3.6580    0.0000 C   0  0  0  0  0  0  0  0  0  0  0  0
   -2.6726    0.9173    0.0000 C   0  0  0  0  0  0  0  0  0  0  0  0
    4.5793    6.0155    0.0000 C   0  0  0  0  0  0  0  0  0  0  0  0
    8.0541    4.0980    0.0000 C   0  0  0  0  0  0  0  0  0  0  0  0
    6.5101    7.7540    0.0000 C   0  0  0  0  0  0  0  0  0  0  0  0
    8.9810    6.9511    0.0000 C   0  0  0  0  0  0  0  0  0  0  0  0
    5.0430    7.4420    0.0000 C   0  0  0  0  0  0  0  0  0  0  0  0
    9.5212    4.4098    0.0000 C   0  0  0  0  0  0  0  0  0  0  0  0
    9.9848    5.8364    0.0000 C   0  0  0  0  0  0  0  0  0  0  0  0
    7.8615   -3.8436    0.0000 C   0  0  0  0  0  0  0  0  0  0  0  0
    8.6115   -5.1425    0.0000 C   0  0  0  0  0  0  0  0  0  0  0  0
   10.8615   -6.4416    0.0000 C   0  0  0  0  0  0  0  0  0  0  0  0
   10.8615   -3.8436    0.0000 C   0  0  0  0  0  0  0  0  0  0  0  0
   12.3615   -6.4416    0.0000 C   0  0  0  0  0  0  0  0  0  0  0  0
   12.3615   -3.8436    0.0000 C   0  0  0  0  0  0  0  0  0  0  0  0
  1 17  2  0  0  0  0
  2 23  2  0  0  0  0
  3  4  1  0  0  0  0
  3  9  1  0  0  0  0
  3 11  1  0  0  0  0
  4 10  2  0  0  0  0
  5  9  1  0  0  0  0
  5 17  1  0  0  0  0
  6 17  1  0  0  0  0
  6 18  1  0  0  0  0
  7 23  1  0  0  0  0
  7 34  1  0  0  0  0
  8 35  1  0  0  0  0
  8 36  1  0  0  0  0
  8 37  1  0  0  0  0
  9 12  2  0  0  0  0
 10 12  1  0  0  0  0
 10 13  1  0  0  0  0
 11 14  2  0  0  0  0
 11 16  1  0  0  0  0
 13 24  1  0  0  0  0
 13 25  1  0  0  0  0
 13 26  1  0  0  0  0
 14 15  1  0  0  0  0
 15 21  2  0  0  0  0
 15 23  1  0  0  0  0
 16 22  2  0  0  0  0
 18 19  1  0  0  0  0
 18 27  2  0  0  0  0
 19 20  1  0  0  0  0
 19 28  2  0  0  0  0
 20 29  1  0  0  0  0
 20 30  2  0  0  0  0
 21 22  1  0  0  0  0
 27 31  1  0  0  0  0
 28 32  1  0  0  0  0
 29 31  2  0  0  0  0
 30 33  1  0  0  0  0
 32 33  2  0  0  0  0
 34 35  1  0  0  0  0
 36 38  1  0  0  0  0
 37 39  1  0  0  0  0
M  END
> <Value>
5.59999938302362

> <Relation>
=

> <SourceURI>
mol:CHEMBL1970290

$$$$

Generated by Molecular Materials Informatics

 26 29  0  0  0  0  0  0  0  0999 V2000
   -1.1514   -3.4149    0.0000 S   0  0  0  0  0  0  0  0  0  0  0  0
   -0.5347    5.5213    0.0000 O   0  0  0  0  0  0  0  0  0  0  0  0
    1.5742   -3.7014    0.0000 N   0  0  0  0  0  0  0  0  0  0  0  0
    2.8732   -1.4514    0.0000 N   0  0  0  0  0  0  0  0  0  0  0  0
    1.5742    0.7986    0.0000 N   0  0  0  0  0  0  0  0  0  0  0  0
   -3.0056    4.7184    0.0000 N   0  0  0  0  0  0  0  0  0  0  0  0
   -2.4654    7.2597    0.0000 N   0  0  0  0  0  0  0  0  0  0  0  0
    0.2752   -1.4514    0.0000 C   0  0  0  0  0  0  0  0  0  0  0  0
   -1.1514   -0.9879    0.0000 C   0  0  0  0  0  0  0  0  0  0  0  0
    0.2752   -2.9514    0.0000 C   0  0  0  0  0  0  0  0  0  0  0  0
   -1.6150    0.4388    0.0000 C   0  0  0  0  0  0  0  0  0  0  0  0
    1.5742   -0.7014    0.0000 C   0  0  0  0  0  0  0  0  0  0  0  0
   -2.0330   -2.2014    0.0000 C   0  0  0  0  0  0  0  0  0  0  0  0
   -3.0821    0.7506    0.0000 C   0  0  0  0  0  0  0  0  0  0  0  0
   -0.6112    1.5535    0.0000 C   0  0  0  0  0  0  0  0  0  0  0  0
    2.8732   -2.9514    0.0000 C   0  0  0  0  0  0  0  0  0  0  0  0
   -2.5419    3.2919    0.0000 C   0  0  0  0  0  0  0  0  0  0  0  0
   -3.5458    2.1772    0.0000 C   0  0  0  0  0  0  0  0  0  0  0  0
   -1.0748    2.9801    0.0000 C   0  0  0  0  0  0  0  0  0  0  0  0
   -2.0018    5.8332    0.0000 C   0  0  0  0  0  0  0  0  0  0  0  0
   -1.4618    8.3744    0.0000 C   0  0  0  0  0  0  0  0  0  0  0  0
   -1.9252    9.8012    0.0000 C   0  0  0  0  0  0  0  0  0  0  0  0
    0.0055    8.0626    0.0000 C   0  0  0  0  0  0  0  0  0  0  0  0
   -0.9216   10.9159    0.0000 C   0  0  0  0  0  0  0  0  0  0  0  0
    1.0093    9.1774    0.0000 C   0  0  0  0  0  0  0  0  0  0  0  0
    0.5457   10.6039    0.0000 C   0  0  0  0  0  0  0  0  0  0  0  0
  1 10  1  0  0  0  0
  1 13  1  0  0  0  0
  2 20  2  0  0  0  0
  3 10  1  0  0  0  0
  3 16  2  0  0  0  0
  4 12  2  0  0  0  0
  4 16  1  0  0  0  0
  5 12  1  0  0  0  0
  6 17  1  0  0  0  0
  6 20  1  0  0  0  0
  7 20  1  0  0  0  0
  7 21  1  0  0  0  0
  8  9  1  0  0  0  0
  8 10  2  0  0  0  0
  8 12  1  0  0  0  0
  9 11  1  0  0  0  0
  9 13  2  0  0  0  0
 11 14  2  0  0  0  0
 11 15  1  0  0  0  0
 14 18  1  0  0  0  0
 15 19  2  0  0  0  0
 17 18  2  0  0  0  0
 17 19  1  0  0  0  0
 21 22  2  0  0  0  0
 21 23  1  0  0  0  0
 22 24  1  0  0  0  0
 23 25  2  0  0  0  0
 24 26  2  0  0  0  0
 25 26  1  0  0  0  0
M  END
> <Value>
5.899998417198648

> <Relation>
<

> <SourceURI>
mol:CHEMBL1967531

$$$$

Generated by Molecular Materials Informatics

 23 25  0  0  0  0  0  0  0  0999 V2000
   -8.9590   -1.3484    0.0000 O   0  0  0  0  0  0  0  0  0  0  0  0
   -1.6136   -1.2871    0.0000 O   0  0  0  0  0  0  0  0  0  0  0  0
   -6.5856   -0.2917    0.0000 N   0  0  0  0  0  0  0  0  0  0  0  0
   -5.5819    0.8230    0.0000 N   0  0  0  0  0  0  0  0  0  0  0  0
   -6.2992   -3.0173    0.0000 N   0  0  0  0  0  0  0  0  0  0  0  0
   -2.9125    0.9628    0.0000 N   0  0  0  0  0  0  0  0  0  0  0  0
   -5.8356   -1.5908    0.0000 C   0  0  0  0  0  0  0  0  0  0  0  0
   -4.3685   -1.2789    0.0000 C   0  0  0  0  0  0  0  0  0  0  0  0
   -4.2116    0.2129    0.0000 C   0  0  0  0  0  0  0  0  0  0  0  0
   -5.2954   -4.1320    0.0000 C   0  0  0  0  0  0  0  0  0  0  0  0
   -3.8283   -3.8202    0.0000 C   0  0  0  0  0  0  0  0  0  0  0  0
   -3.3647   -2.3936    0.0000 C   0  0  0  0  0  0  0  0  0  0  0  0
   -8.0774   -0.1350    0.0000 C   0  0  0  0  0  0  0  0  0  0  0  0
   -5.7590   -5.5585    0.0000 C   0  0  0  0  0  0  0  0  0  0  0  0
   -2.8245   -4.9349    0.0000 C   0  0  0  0  0  0  0  0  0  0  0  0
   -1.6136    0.2129    0.0000 C   0  0  0  0  0  0  0  0  0  0  0  0
   -8.6875    1.2354    0.0000 C   0  0  0  0  0  0  0  0  0  0  0  0
   -4.7552   -6.6732    0.0000 C   0  0  0  0  0  0  0  0  0  0  0  0
   -3.2882   -6.3614    0.0000 C   0  0  0  0  0  0  0  0  0  0  0  0
   -0.3146    0.9628    0.0000 C   0  0  0  0  0  0  0  0  0  0  0  0
   -7.8057    2.4488    0.0000 C   0  0  0  0  0  0  0  0  0  0  0  0
    0.9845    0.2129    0.0000 C   0  0  0  0  0  0  0  0  0  0  0  0
    2.2834    0.9628    0.0000 C   0  0  0  0  0  0  0  0  0  0  0  0
  1 13  2  0  0  0  0
  2 16  2  0  0  0  0
  3  4  1  0  0  0  0
  3  7  1  0  0  0  0
  3 13  1  0  0  0  0
  4  9  2  0  0  0  0
  5  7  2  0  0  0  0
  5 10  1  0  0  0  0
  6  9  1  0  0  0  0
  6 16  1  0  0  0  0
  7  8  1  0  0  0  0
  8  9  1  0  0  0  0
  8 12  2  0  0  0  0
 10 11  1  0  0  0  0
 10 14  2  0  0  0  0
 11 12  1  0  0  0  0
 11 15  2  0  0  0  0
 13 17  1  0  0  0  0
 14 18  1  0  0  0  0
 15 19  1  0  0  0  0
 16 20  1  0  0  0  0
 17 21  1  0  0  0  0
 18 19  2  0  0  0  0
 20 22  1  0  0  0  0
 22 23  1  0  0  0  0
M  END
> <Value>
5.899998417198648

> <Relation>
<

> <SourceURI>
mol:CHEMBL1970913

$$$$

Generated by Molecular Materials Informatics

 26 28  0  0  0  0  0  0  0  0999 V2000
    7.7926   -3.0501    0.0000 S   0  0  0  0  0  0  0  0  0  0  0  0
    8.5426   -4.3492    0.0000 O   0  0  0  0  0  0  0  0  0  0  0  0
    7.0427   -1.7513    0.0000 O   0  0  0  0  0  0  0  0  0  0  0  0
   -5.6613   -1.8874    0.0000 O   0  0  0  0  0  0  0  0  0  0  0  0
   -2.7269    1.1632    0.0000 N   0  0  0  0  0  0  0  0  0  0  0  0
   -3.6085   -0.0502    0.0000 N   0  0  0  0  0  0  0  0  0  0  0  0
   -3.1903   -2.6903    0.0000 N   0  0  0  0  0  0  0  0  0  0  0  0
    6.4936   -3.8001    0.0000 N   0  0  0  0  0  0  0  0  0  0  0  0
   -1.3004   -0.8002    0.0000 C   0  0  0  0  0  0  0  0  0  0  0  0
   -1.3004    0.6997    0.0000 C   0  0  0  0  0  0  0  0  0  0  0  0
   -2.7269   -1.2638    0.0000 C   0  0  0  0  0  0  0  0  0  0  0  0
    1.2977   -0.8002    0.0000 C   0  0  0  0  0  0  0  0  0  0  0  0
   -0.0013   -1.5502    0.0000 C   0  0  0  0  0  0  0  0  0  0  0  0
    2.5966   -1.5502    0.0000 C   0  0  0  0  0  0  0  0  0  0  0  0
   -0.0013    1.4497    0.0000 C   0  0  0  0  0  0  0  0  0  0  0  0
    1.2977    0.6997    0.0000 C   0  0  0  0  0  0  0  0  0  0  0  0
    5.1947   -3.0501    0.0000 C   0  0  0  0  0  0  0  0  0  0  0  0
    3.8957   -0.8002    0.0000 C   0  0  0  0  0  0  0  0  0  0  0  0
    2.5966   -3.0501    0.0000 C   0  0  0  0  0  0  0  0  0  0  0  0
    5.1947   -1.5502    0.0000 C   0  0  0  0  0  0  0  0  0  0  0  0
    3.8957   -3.8001    0.0000 C   0  0  0  0  0  0  0  0  0  0  0  0
   -4.6575   -3.0021    0.0000 C   0  0  0  0  0  0  0  0  0  0  0  0
    9.0917   -2.3002    0.0000 C   0  0  0  0  0  0  0  0  0  0  0  0
   -5.1211   -4.4288    0.0000 C   0  0  0  0  0  0  0  0  0  0  0  0
   10.3907   -3.0501    0.0000 C   0  0  0  0  0  0  0  0  0  0  0  0
   11.6896   -2.3002    0.0000 C   0  0  0  0  0  0  0  0  0  0  0  0
  1  2  2  0  0  0  0
  1  3  2  0  0  0  0
  1  8  1  0  0  0  0
  1 23  1  0  0  0  0
  4 22  2  0  0  0  0
  5  6  1  0  0  0  0
  5 10  1  0  0  0  0
  6 11  2  0  0  0  0
  7 11  1  0  0  0  0
  7 22  1  0  0  0  0
  8 17  1  0  0  0  0
  9 10  1  0  0  0  0
  9 11  1  0  0  0  0
  9 13  2  0  0  0  0
 10 15  2  0  0  0  0
 12 13  1  0  0  0  0
 12 14  1  0  0  0  0
 12 16  2  0  0  0  0
 14 18  2  0  0  0  0
 14 19  1  0  0  0  0
 15 16  1  0  0  0  0
 17 20  2  0  0  0  0
 17 21  1  0  0  0  0
 18 20  1  0  0  0  0
 19 21  2  0  0  0  0
 22 24  1  0  0  0  0
 23 25  1  0  0  0  0
 25 26  1  0  0  0  0
M  END
> <Value>
6.199998172182031

> <Relation>
=

> <SourceURI>
mol:CHEMBL1973893

$$$$

Generated by Molecular Materials Informatics

 33 36  0  0  0  0  0  0  0  0999 V2000
    0.0852   -3.6767    0.0000 C   0  0  0  0  0  0  0  0  0  0  0  0
   -1.4148   -3.6767    0.0000 C   0  0  0  0  0  0  0  0  0  0  0  0
   -2.2964   -4.8902    0.0000 C   0  0  0  0  0  0  0  0  0  0  0  0
    1.9334    7.6315    0.0000 N   0  0  0  0  0  0  0  0  0  0  0  0
   -4.3313   -9.9011    0.0000 C   0  0  0  0  0  0  0  0  0  0  0  0
   -4.9415   -8.5307    0.0000 C   0  0  0  0  0  0  0  0  0  0  0  0
   -4.0597   -7.3173    0.0000 C   0  0  0  0  0  0  0  0  0  0  0  0
   -4.6698   -5.9469    0.0000 C   0  0  0  0  0  0  0  0  0  0  0  0
    0.6343    0.8816    0.0000 C   0  0  0  0  0  0  0  0  0  0  0  0
    0.6343    2.3816    0.0000 C   0  0  0  0  0  0  0  0  0  0  0  0
    1.9334    3.1316    0.0000 C   0  0  0  0  0  0  0  0  0  0  0  0
    3.2323    0.8816    0.0000 C   0  0  0  0  0  0  0  0  0  0  0  0
    4.5314    0.1316    0.0000 C   0  0  0  0  0  0  0  0  0  0  0  0
    0.6343    5.3815    0.0000 C   0  0  0  0  0  0  0  0  0  0  0  0
    3.2323    5.3815    0.0000 C   0  0  0  0  0  0  0  0  0  0  0  0
    1.9334    9.1315    0.0000 C   0  0  0  0  0  0  0  0  0  0  0  0
    3.2323    9.8815    0.0000 C   0  0  0  0  0  0  0  0  0  0  0  0
   -0.6648    0.1316    0.0000 N   0  0  0  0  0  0  0  0  0  0  0  0
   -0.6648   -1.3684    0.0000 C   0  0  0  0  0  0  0  0  0  0  0  0
    0.5489   -2.2500    0.0000 N   0  0  0  0  0  0  0  0  0  0  0  0
   -1.8782   -2.2500    0.0000 S   0  0  0  0  0  0  0  0  0  0  0  0
   -1.6862   -6.2605    0.0000 N   0  0  0  0  0  0  0  0  0  0  0  0
   -2.5680   -7.4740    0.0000 C   0  0  0  0  0  0  0  0  0  0  0  0
   -1.9579   -8.8443    0.0000 C   0  0  0  0  0  0  0  0  0  0  0  0
   -2.8395  -10.0578    0.0000 C   0  0  0  0  0  0  0  0  0  0  0  0
   -0.4660   -9.0011    0.0000 Cl  0  0  0  0  0  0  0  0  0  0  0  0
   -3.7882   -4.7335    0.0000 O   0  0  0  0  0  0  0  0  0  0  0  0
    3.2323    2.3816    0.0000 N   0  0  0  0  0  0  0  0  0  0  0  0
    1.9334    0.1316    0.0000 N   0  0  0  0  0  0  0  0  0  0  0  0
    1.9334    4.6315    0.0000 N   0  0  0  0  0  0  0  0  0  0  0  0
    0.6343    6.8815    0.0000 C   0  0  0  0  0  0  0  0  0  0  0  0
    3.2323    6.8815    0.0000 C   0  0  0  0  0  0  0  0  0  0  0  0
    3.2323   11.3815    0.0000 O   0  0  0  0  0  0  0  0  0  0  0  0
  1  2  2  0  0  0  0
  1 20  1  0  0  0  0
  2  3  1  0  0  0  0
  2 21  1  0  0  0  0
  3 22  1  0  0  0  0
  3 27  2  0  0  0  0
 16  4  1  0  0  0  0
 31  4  1  0  0  0  0
 32  4  1  0  0  0  0
  5  6  2  0  0  0  0
 25  5  1  0  0  0  0
  6  7  1  0  0  0  0
  8  7  1  0  0  0  0
 23  7  2  0  0  0  0
  9 10  1  0  0  0  0
  9 18  1  0  0  0  0
  9 29  2  0  0  0  0
 10 11  2  0  0  0  0
 11 28  1  0  0  0  0
 11 30  1  0  0  0  0
 12 13  1  0  0  0  0
 12 28  2  0  0  0  0
 12 29  1  0  0  0  0
 14 30  1  0  0  0  0
 14 31  1  0  0  0  0
 15 30  1  0  0  0  0
 32 15  1  0  0  0  0
 16 17  1  0  0  0  0
 17 33  1  0  0  0  0
 19 18  1  0  0  0  0
 19 20  2  0  0  0  0
 19 21  1  0  0  0  0
 23 22  1  0  0  0  0
 23 24  1  0  0  0  0
 24 25  2  0  0  0  0
 24 26  1  0  0  0  0
M  END
> <Value>
5.59999938302362

> <Relation>
<

> <SourceURI>
mol:CHEMBL1421

$$$$

Generated by Molecular Materials Informatics

 29 32  0  0  0  0  0  0  0  0999 V2000
    3.4992    1.0247    0.0000 S   0  0  0  0  0  0  0  0  0  0  0  0
    7.0682   -0.8143    0.0000 O   0  0  0  0  0  0  0  0  0  0  0  0
    4.7617   -8.4089    0.0000 O   0  0  0  0  0  0  0  0  0  0  0  0
   -1.9812    5.2299    0.0000 N   0  0  0  0  0  0  0  0  0  0  0  0
   -2.8628    4.0163    0.0000 N   0  0  0  0  0  0  0  0  0  0  0  0
    4.6948   -1.8711    0.0000 N   0  0  0  0  0  0  0  0  0  0  0  0
    3.3423    2.5163    0.0000 C   0  0  0  0  0  0  0  0  0  0  0  0
    2.0434    3.2663    0.0000 C   0  0  0  0  0  0  0  0  0  0  0  0
   -0.5547    3.2663    0.0000 C   0  0  0  0  0  0  0  0  0  0  0  0
    4.7127    3.1265    0.0000 C   0  0  0  0  0  0  0  0  0  0  0  0
    4.9663    0.7127    0.0000 C   0  0  0  0  0  0  0  0  0  0  0  0
   -0.5547    4.7663    0.0000 C   0  0  0  0  0  0  0  0  0  0  0  0
    0.7444    2.5163    0.0000 C   0  0  0  0  0  0  0  0  0  0  0  0
   -1.9812    2.8029    0.0000 C   0  0  0  0  0  0  0  0  0  0  0  0
    5.7163    2.0118    0.0000 C   0  0  0  0  0  0  0  0  0  0  0  0
    2.0434    4.7663    0.0000 C   0  0  0  0  0  0  0  0  0  0  0  0
    5.5765   -0.6574    0.0000 C   0  0  0  0  0  0  0  0  0  0  0  0
    0.7444    5.5163    0.0000 C   0  0  0  0  0  0  0  0  0  0  0  0
    5.3048   -3.2414    0.0000 C   0  0  0  0  0  0  0  0  0  0  0  0
    5.0245    4.5937    0.0000 C   0  0  0  0  0  0  0  0  0  0  0  0
    4.4232   -4.4548    0.0000 C   0  0  0  0  0  0  0  0  0  0  0  0
   -2.4447    1.3763    0.0000 C   0  0  0  0  0  0  0  0  0  0  0  0
    5.0334   -5.8252    0.0000 C   0  0  0  0  0  0  0  0  0  0  0  0
    2.9314   -4.2981    0.0000 C   0  0  0  0  0  0  0  0  0  0  0  0
    4.1516   -7.0386    0.0000 C   0  0  0  0  0  0  0  0  0  0  0  0
    6.7966   -3.3981    0.0000 C   0  0  0  0  0  0  0  0  0  0  0  0
    2.6600   -6.8819    0.0000 C   0  0  0  0  0  0  0  0  0  0  0  0
    2.0498   -5.5115    0.0000 C   0  0  0  0  0  0  0  0  0  0  0  0
    6.2535   -8.5657    0.0000 C   0  0  0  0  0  0  0  0  0  0  0  0
  1  7  1  0  0  0  0
  1 11  1  0  0  0  0
  2 17  2  0  0  0  0
  3 25  1  0  0  0  0
  3 29  1  0  0  0  0
  4  5  1  0  0  0  0
  4 12  1  0  0  0  0
  5 14  2  0  0  0  0
  6 17  1  0  0  0  0
  6 19  1  0  0  0  0
  7  8  1  0  0  0  0
  7 10  2  0  0  0  0
  8 13  1  0  0  0  0
  8 16  2  0  0  0  0
  9 12  1  0  0  0  0
  9 13  2  0  0  0  0
  9 14  1  0  0  0  0
 10 15  1  0  0  0  0
 10 20  1  0  0  0  0
 11 15  2  0  0  0  0
 11 17  1  0  0  0  0
 12 18  2  0  0  0  0
 14 22  1  0  0  0  0
 16 18  1  0  0  0  0
 19 21  1  0  0  0  0
 19 26  1  0  0  0  0
 21 23  2  0  0  0  0
 21 24  1  0  0  0  0
 23 25  1  0  0  0  0
 24 28  2  0  0  0  0
 25 27  2  0  0  0  0
 27 28  1  0  0  0  0
M  END
> <Value>
5.899998417198648

> <Relation>
<

> <SourceURI>
mol:CHEMBL1997534

$$$$

Generated by Molecular Materials Informatics

 17 19  0  0  0  0  0  0  0  0999 V2000
   -1.2648   -0.5759    0.0000 N   0  0  0  0  0  0  0  0  0  0  0  0
    1.4608   -0.8624    0.0000 N   0  0  0  0  0  0  0  0  0  0  0  0
    2.7597    1.3876    0.0000 N   0  0  0  0  0  0  0  0  0  0  0  0
    1.4608    3.6376    0.0000 N   0  0  0  0  0  0  0  0  0  0  0  0
    0.1617    1.3876    0.0000 C   0  0  0  0  0  0  0  0  0  0  0  0
    0.1617   -0.1124    0.0000 C   0  0  0  0  0  0  0  0  0  0  0  0
   -1.2648    1.8510    0.0000 C   0  0  0  0  0  0  0  0  0  0  0  0
   -2.1465    0.6376    0.0000 C   0  0  0  0  0  0  0  0  0  0  0  0
    1.4608    2.1376    0.0000 C   0  0  0  0  0  0  0  0  0  0  0  0
   -1.7285   -2.0026    0.0000 C   0  0  0  0  0  0  0  0  0  0  0  0
   -1.7285    3.2778    0.0000 C   0  0  0  0  0  0  0  0  0  0  0  0
    2.7597   -0.1124    0.0000 C   0  0  0  0  0  0  0  0  0  0  0  0
   -0.8467   -3.2161    0.0000 C   0  0  0  0  0  0  0  0  0  0  0  0
   -3.1550   -2.4661    0.0000 C   0  0  0  0  0  0  0  0  0  0  0  0
   -1.7285   -4.4295    0.0000 C   0  0  0  0  0  0  0  0  0  0  0  0
   -3.1550   -3.9661    0.0000 C   0  0  0  0  0  0  0  0  0  0  0  0
   -2.1919    4.7043    0.0000 C   0  0  0  0  0  0  0  0  0  0  0  0
  1  6  1  0  0  0  0
  1  8  1  0  0  0  0
  1 10  1  0  0  0  0
  2  6  1  0  0  0  0
  2 12  2  0  0  0  0
  3  9  2  0  0  0  0
  3 12  1  0  0  0  0
  4  9  1  0  0  0  0
  5  6  2  0  0  0  0
  5  7  1  0  0  0  0
  5  9  1  0  0  0  0
  7  8  2  0  0  0  0
  7 11  1  0  0  0  0
 10 13  1  0  0  0  0
 10 14  1  0  0  0  0
 11 17  3  0  0  0  0
 13 15  1  0  0  0  0
 14 16  1  0  0  0  0
 15 16  1  0  0  0  0
M  END
> <Value>
5.40000018605658

> <Relation>
=

> <SourceURI>
mol:CHEMBL1993877

$$$$

Generated by Molecular Materials Informatics

 32 37  0  0  0  0  0  0  0  0999 V2000
   -0.1761   -0.4347    0.0000 S   0  0  0  0  0  0  0  0  0  0  0  0
  -10.2588    7.7128    0.0000 O   0  0  0  0  0  0  0  0  0  0  0  0
   -7.3613    5.0008    0.0000 N   0  0  0  0  0  0  0  0  0  0  0  0
   -3.5210    5.2106    0.0000 N   0  0  0  0  0  0  0  0  0  0  0  0
   -2.8442   -1.9469    0.0000 N   0  0  0  0  0  0  0  0  0  0  0  0
   -4.3239    7.6817    0.0000 N   0  0  0  0  0  0  0  0  0  0  0  0
   -4.0577   -2.8285    0.0000 N   0  0  0  0  0  0  0  0  0  0  0  0
   -1.7826    7.1415    0.0000 N   0  0  0  0  0  0  0  0  0  0  0  0
   -7.6750    7.9844    0.0000 N   0  0  0  0  0  0  0  0  0  0  0  0
   -5.5577    3.3768    0.0000 C   0  0  0  0  0  0  0  0  0  0  0  0
   -4.9477    4.7471    0.0000 C   0  0  0  0  0  0  0  0  0  0  0  0
   -4.8077    2.0779    0.0000 C   0  0  0  0  0  0  0  0  0  0  0  0
   -2.5577    0.7788    0.0000 C   0  0  0  0  0  0  0  0  0  0  0  0
   -6.0624    5.7508    0.0000 C   0  0  0  0  0  0  0  0  0  0  0  0
   -3.3077   -0.5203    0.0000 C   0  0  0  0  0  0  0  0  0  0  0  0
   -4.8077   -0.5203    0.0000 C   0  0  0  0  0  0  0  0  0  0  0  0
   -3.3077    2.0779    0.0000 C   0  0  0  0  0  0  0  0  0  0  0  0
   -7.0495    3.5337    0.0000 C   0  0  0  0  0  0  0  0  0  0  0  0
   -1.0577    0.7788    0.0000 C   0  0  0  0  0  0  0  0  0  0  0  0
   -5.5577    0.7788    0.0000 C   0  0  0  0  0  0  0  0  0  0  0  0
   -5.7504    7.2180    0.0000 C   0  0  0  0  0  0  0  0  0  0  0  0
   -0.1761    1.9922    0.0000 C   0  0  0  0  0  0  0  0  0  0  0  0
    1.2505    0.0288    0.0000 C   0  0  0  0  0  0  0  0  0  0  0  0
    1.2505    1.5288    0.0000 C   0  0  0  0  0  0  0  0  0  0  0  0
   -5.2713   -1.9469    0.0000 C   0  0  0  0  0  0  0  0  0  0  0  0
   -3.2091    6.6779    0.0000 C   0  0  0  0  0  0  0  0  0  0  0  0
   -8.7317    5.6109    0.0000 C   0  0  0  0  0  0  0  0  0  0  0  0
    2.5496   -0.7212    0.0000 C   0  0  0  0  0  0  0  0  0  0  0  0
    2.5496    2.2788    0.0000 C   0  0  0  0  0  0  0  0  0  0  0  0
   -8.8884    7.1028    0.0000 C   0  0  0  0  0  0  0  0  0  0  0  0
    3.8487    0.0288    0.0000 C   0  0  0  0  0  0  0  0  0  0  0  0
    3.8487    1.5288    0.0000 C   0  0  0  0  0  0  0  0  0  0  0  0
  1 19  1  0  0  0  0
  1 23  1  0  0  0  0
  2 30  2  0  0  0  0
  3 14  1  0  0  0  0
  3 18  1  0  0  0  0
  3 27  1  0  0  0  0
  4 11  2  0  0  0  0
  4 26  1  0  0  0  0
  5  7  1  0  0  0  0
  5 15  1  0  0  0  0
  6 21  1  0  0  0  0
  6 26  2  0  0  0  0
  7 25  2  0  0  0  0
  8 26  1  0  0  0  0
  9 30  1  0  0  0  0
 10 11  1  0  0  0  0
 10 12  1  0  0  0  0
 10 18  2  0  0  0  0
 11 14  1  0  0  0  0
 12 17  2  0  0  0  0
 12 20  1  0  0  0  0
 13 15  2  0  0  0  0
 13 17  1  0  0  0  0
 13 19  1  0  0  0  0
 14 21  2  0  0  0  0
 15 16  1  0  0  0  0
 16 20  2  0  0  0  0
 16 25  1  0  0  0  0
 19 22  2  0  0  0  0
 22 24  1  0  0  0  0
 23 24  1  0  0  0  0
 23 28  2  0  0  0  0
 24 29  2  0  0  0  0
 27 30  1  0  0  0  0
 28 31  1  0  0  0  0
 29 32  1  0  0  0  0
 31 32  2  0  0  0  0
M  END
> <Value>
6.0

> <Relation>
=

> <SourceURI>
mol:CHEMBL1985095

$$$$

Generated by Molecular Materials Informatics

 30 33  0  0  0  0  0  0  0  0999 V2000
   -2.0266    3.0732    0.0000 F   0  0  0  0  0  0  0  0  0  0  0  0
   -6.5266    0.4752    0.0000 F   0  0  0  0  0  0  0  0  0  0  0  0
    4.9099   -7.7386    0.0000 O   0  0  0  0  0  0  0  0  0  0  0  0
    1.7816   -0.2748    0.0000 N   0  0  0  0  0  0  0  0  0  0  0  0
    0.3550    1.6887    0.0000 N   0  0  0  0  0  0  0  0  0  0  0  0
    0.8952   -3.2797    0.0000 N   0  0  0  0  0  0  0  0  0  0  0  0
    4.3797    1.2252    0.0000 N   0  0  0  0  0  0  0  0  0  0  0  0
   -1.0355   -5.0181    0.0000 N   0  0  0  0  0  0  0  0  0  0  0  0
    1.4354   -5.8210    0.0000 N   0  0  0  0  0  0  0  0  0  0  0  0
    0.3550   -0.7384    0.0000 C   0  0  0  0  0  0  0  0  0  0  0  0
   -0.5266    0.4752    0.0000 C   0  0  0  0  0  0  0  0  0  0  0  0
    1.7816    1.2252    0.0000 C   0  0  0  0  0  0  0  0  0  0  0  0
   -0.1084   -2.1650    0.0000 C   0  0  0  0  0  0  0  0  0  0  0  0
   -2.0266    0.4752    0.0000 C   0  0  0  0  0  0  0  0  0  0  0  0
    3.0807    1.9752    0.0000 C   0  0  0  0  0  0  0  0  0  0  0  0
    3.0807   -1.0248    0.0000 C   0  0  0  0  0  0  0  0  0  0  0  0
   -2.7766    1.7741    0.0000 C   0  0  0  0  0  0  0  0  0  0  0  0
   -2.7766   -0.8239    0.0000 C   0  0  0  0  0  0  0  0  0  0  0  0
   -1.5757   -2.4768    0.0000 C   0  0  0  0  0  0  0  0  0  0  0  0
    4.3797   -0.2748    0.0000 C   0  0  0  0  0  0  0  0  0  0  0  0
    0.4316   -4.7062    0.0000 C   0  0  0  0  0  0  0  0  0  0  0  0
   -4.2766    1.7741    0.0000 C   0  0  0  0  0  0  0  0  0  0  0  0
   -4.2766   -0.8239    0.0000 C   0  0  0  0  0  0  0  0  0  0  0  0
   -5.0266    0.4752    0.0000 C   0  0  0  0  0  0  0  0  0  0  0  0
   -2.0393   -3.9035    0.0000 C   0  0  0  0  0  0  0  0  0  0  0  0
    3.0807    3.4752    0.0000 C   0  0  0  0  0  0  0  0  0  0  0  0
    2.9027   -5.5092    0.0000 C   0  0  0  0  0  0  0  0  0  0  0  0
    3.9063   -6.6239    0.0000 C   0  0  0  0  0  0  0  0  0  0  0  0
    5.0210   -5.6201    0.0000 C   0  0  0  0  0  0  0  0  0  0  0  0
    2.7916   -7.6275    0.0000 C   0  0  0  0  0  0  0  0  0  0  0  0
  1 17  1  0  0  0  0
  2 24  1  0  0  0  0
  3 28  1  0  0  0  0
  4 10  1  0  0  0  0
  4 12  1  0  0  0  0
  4 16  1  0  0  0  0
  5 11  1  0  0  0  0
  5 12  2  0  0  0  0
  6 13  1  0  0  0  0
  6 21  2  0  0  0  0
  7 15  2  0  0  0  0
  7 20  1  0  0  0  0
  8 21  1  0  0  0  0
  8 25  2  0  0  0  0
  9 21  1  0  0  0  0
  9 27  1  0  0  0  0
 10 11  2  0  0  0  0
 10 13  1  0  0  0  0
 11 14  1  0  0  0  0
 12 15  1  0  0  0  0
 13 19  2  0  0  0  0
 14 17  1  0  0  0  0
 14 18  2  0  0  0  0
 15 26  1  0  0  0  0
 16 20  2  0  0  0  0
 17 22  2  0  0  0  0
 18 23  1  0  0  0  0
 19 25  1  0  0  0  0
 22 24  1  0  0  0  0
 23 24  2  0  0  0  0
 27 28  1  0  0  0  0
 28 29  1  0  0  0  0
 28 30  1  0  0  0  0
M  END
> <Value>
5.300000202445418

> <Relation>
<

> <SourceURI>
mol:CHEMBL1996500

$$$$

Generated by Molecular Materials Informatics

 28 30  0  0  0  0  0  0  0  0999 V2000
    5.3209    0.6127    0.0000 O   0  0  0  0  0  0  0  0  0  0  0  0
    1.6189   -2.1465    0.0000 O   0  0  0  0  0  0  0  0  0  0  0  0
    3.5493   -8.0878    0.0000 O   0  0  0  0  0  0  0  0  0  0  0  0
   -3.9546   -7.1651    0.0000 O   0  0  0  0  0  0  0  0  0  0  0  0
   -7.4316   -3.3036    0.0000 O   0  0  0  0  0  0  0  0  0  0  0  0
    4.5709   -3.1956    0.0000 N   0  0  0  0  0  0  0  0  0  0  0  0
    5.7846   -4.0772    0.0000 N   0  0  0  0  0  0  0  0  0  0  0  0
    5.3209   -5.5038    0.0000 N   0  0  0  0  0  0  0  0  0  0  0  0
    5.7846   -0.8139    0.0000 N   0  0  0  0  0  0  0  0  0  0  0  0
    3.8209    0.6127    0.0000 N   0  0  0  0  0  0  0  0  0  0  0  0
    0.8162   -4.6174    0.0000 N   0  0  0  0  0  0  0  0  0  0  0  0
   -0.6106   -4.1539    0.0000 N   0  0  0  0  0  0  0  0  0  0  0  0
    1.9309   -1.2774    0.0000 N   0  0  0  0  0  0  0  0  0  0  0  0
    3.3575   -4.0772    0.0000 C   0  0  0  0  0  0  0  0  0  0  0  0
    4.5709   -1.6955    0.0000 C   0  0  0  0  0  0  0  0  0  0  0  0
    3.8209   -5.5038    0.0000 C   0  0  0  0  0  0  0  0  0  0  0  0
    1.9309   -3.6137    0.0000 C   0  0  0  0  0  0  0  0  0  0  0  0
    3.3575   -0.8139    0.0000 C   0  0  0  0  0  0  0  0  0  0  0  0
    2.9393   -6.7174    0.0000 C   0  0  0  0  0  0  0  0  0  0  0  0
   -3.1519   -4.6941    0.0000 C   0  0  0  0  0  0  0  0  0  0  0  0
   -1.7253   -5.1576    0.0000 C   0  0  0  0  0  0  0  0  0  0  0  0
   -4.2666   -5.6978    0.0000 C   0  0  0  0  0  0  0  0  0  0  0  0
   -3.4637   -3.2268    0.0000 C   0  0  0  0  0  0  0  0  0  0  0  0
   -5.6932   -5.2343    0.0000 C   0  0  0  0  0  0  0  0  0  0  0  0
   -6.0050   -3.7670    0.0000 C   0  0  0  0  0  0  0  0  0  0  0  0
   -4.8903   -2.7634    0.0000 C   0  0  0  0  0  0  0  0  0  0  0  0
   -1.4133   -6.6249    0.0000 C   0  0  0  0  0  0  0  0  0  0  0  0
    2.6676   -9.3013    0.0000 C   0  0  0  0  0  0  0  0  0  0  0  0
  1  9  1  0  0  0  0
  1 10  1  0  0  0  0
  2 17  2  0  0  0  0
  3 19  1  0  0  0  0
  3 28  1  0  0  0  0
  4 22  1  0  0  0  0
  5 25  1  0  0  0  0
  6  7  1  0  0  0  0
  6 14  1  0  0  0  0
  6 15  1  0  0  0  0
  7  8  2  0  0  0  0
  8 16  1  0  0  0  0
  9 15  2  0  0  0  0
 10 18  2  0  0  0  0
 12 11  1  0  0  0  0
 11 17  1  0  0  0  0
 12 21  2  0  0  0  0
 13 18  1  0  0  0  0
 14 16  2  0  0  0  0
 14 17  1  0  0  0  0
 15 18  1  0  0  0  0
 16 19  1  0  0  0  0
 20 21  1  0  0  0  0
 20 22  1  0  0  0  0
 20 23  2  0  0  0  0
 21 27  1  0  0  0  0
 22 24  2  0  0  0  0
 23 26  1  0  0  0  0
 24 25  1  0  0  0  0
 25 26  2  0  0  0  0
M  END
> <Value>
6.799998134593398

> <Relation>
=

> <SourceURI>
mol:CHEMBL1991180

$$$$

Generated by Molecular Materials Informatics

 36 40  0  0  0  0  0  0  0  0999 V2000
   -0.0759    3.4585    0.0000 S   0  0  0  0  0  0  0  0  0  0  0  0
    0.7464   11.3505    0.0000 O   0  0  0  0  0  0  0  0  0  0  0  0
   -4.4010   -3.8721    0.0000 O   0  0  0  0  0  0  0  0  0  0  0  0
    3.9488    1.4948    0.0000 N   0  0  0  0  0  0  0  0  0  0  0  0
    1.8997    7.5532    0.0000 N   0  0  0  0  0  0  0  0  0  0  0  0
    2.6497   -0.7552    0.0000 N   0  0  0  0  0  0  0  0  0  0  0  0
    3.3997    7.5532    0.0000 N   0  0  0  0  0  0  0  0  0  0  0  0
   -1.9301   -4.6750    0.0000 N   0  0  0  0  0  0  0  0  0  0  0  0
   -3.8608   -6.4134    0.0000 N   0  0  0  0  0  0  0  0  0  0  0  0
    1.3506    1.4948    0.0000 C   0  0  0  0  0  0  0  0  0  0  0  0
    1.3506    2.9948    0.0000 C   0  0  0  0  0  0  0  0  0  0  0  0
   -0.0759    1.0314    0.0000 C   0  0  0  0  0  0  0  0  0  0  0  0
    2.6497    3.7448    0.0000 C   0  0  0  0  0  0  0  0  0  0  0  0
    2.6497    0.7448    0.0000 C   0  0  0  0  0  0  0  0  0  0  0  0
    2.6497    5.2448    0.0000 C   0  0  0  0  0  0  0  0  0  0  0  0
   -0.5394   -0.3952    0.0000 C   0  0  0  0  0  0  0  0  0  0  0  0
   -0.9576    2.2448    0.0000 C   0  0  0  0  0  0  0  0  0  0  0  0
    3.9488    2.9948    0.0000 C   0  0  0  0  0  0  0  0  0  0  0  0
    1.4361    6.1266    0.0000 C   0  0  0  0  0  0  0  0  0  0  0  0
    3.8632    6.1266    0.0000 C   0  0  0  0  0  0  0  0  0  0  0  0
    0.4643   -1.5099    0.0000 C   0  0  0  0  0  0  0  0  0  0  0  0
   -2.0066   -0.7070    0.0000 C   0  0  0  0  0  0  0  0  0  0  0  0
   -1.4665   -3.2485    0.0000 C   0  0  0  0  0  0  0  0  0  0  0  0
    0.0006   -2.9365    0.0000 C   0  0  0  0  0  0  0  0  0  0  0  0
   -2.4703   -2.1337    0.0000 C   0  0  0  0  0  0  0  0  0  0  0  0
    1.0181    8.7666    0.0000 C   0  0  0  0  0  0  0  0  0  0  0  0
    1.6281   10.1370    0.0000 C   0  0  0  0  0  0  0  0  0  0  0  0
   -3.3972   -4.9868    0.0000 C   0  0  0  0  0  0  0  0  0  0  0  0
   -2.8570   -7.5281    0.0000 C   0  0  0  0  0  0  0  0  0  0  0  0
   -1.3899   -7.2163    0.0000 C   0  0  0  0  0  0  0  0  0  0  0  0
    3.1199   10.2937    0.0000 C   0  0  0  0  0  0  0  0  0  0  0  0
   -3.3206   -8.9546    0.0000 C   0  0  0  0  0  0  0  0  0  0  0  0
   -0.3861   -8.3310    0.0000 C   0  0  0  0  0  0  0  0  0  0  0  0
   -2.3168  -10.0694    0.0000 C   0  0  0  0  0  0  0  0  0  0  0  0
   -0.8497   -9.7575    0.0000 C   0  0  0  0  0  0  0  0  0  0  0  0
    1.0810   -8.0192    0.0000 C   0  0  0  0  0  0  0  0  0  0  0  0
  1 11  1  0  0  0  0
  1 17  1  0  0  0  0
  2 27  1  0  0  0  0
  3 28  2  0  0  0  0
  4 14  2  0  0  0  0
  4 18  1  0  0  0  0
  5  7  1  0  0  0  0
  5 19  1  0  0  0  0
  5 26  1  0  0  0  0
  6 14  1  0  0  0  0
  7 20  2  0  0  0  0
  8 23  1  0  0  0  0
  8 28  1  0  0  0  0
  9 28  1  0  0  0  0
  9 29  1  0  0  0  0
 10 11  2  0  0  0  0
 10 12  1  0  0  0  0
 10 14  1  0  0  0  0
 11 13  1  0  0  0  0
 12 16  1  0  0  0  0
 12 17  2  0  0  0  0
 13 15  1  0  0  0  0
 13 18  2  0  0  0  0
 15 19  2  0  0  0  0
 15 20  1  0  0  0  0
 16 21  2  0  0  0  0
 16 22  1  0  0  0  0
 21 24  1  0  0  0  0
 22 25  2  0  0  0  0
 23 24  2  0  0  0  0
 23 25  1  0  0  0  0
 26 27  1  0  0  0  0
 27 31  1  0  0  0  0
 29 30  1  0  0  0  0
 29 32  2  0  0  0  0
 30 33  2  0  0  0  0
 32 34  1  0  0  0  0
 33 35  1  0  0  0  0
 33 36  1  0  0  0  0
 34 35  2  0  0  0  0
M  END
> <Value>
5.59999938302362

> <Relation>
<

> <SourceURI>
mol:CHEMBL1989708

$$$$

Generated by Molecular Materials Informatics

 18 21  0  0  0  0  0  0  0  0999 V2000
    0.5033   -0.8008    0.0000 C   0  0  0  0  0  0  0  0  0  0  0  0
    0.5013   -2.3048    0.0000 C   0  0  0  0  0  0  0  0  0  0  0  0
    1.8006   -3.0553    0.0000 C   0  0  0  0  0  0  0  0  0  0  0  0
    1.7972   -0.0504    0.0000 C   0  0  0  0  0  0  0  0  0  0  0  0
    3.0976   -0.7943    0.0000 C   0  0  0  0  0  0  0  0  0  0  0  0
    3.0982   -2.2964    0.0000 C   0  0  0  0  0  0  0  0  0  0  0  0
    5.4099   -1.5447    0.0000 N   0  0  0  0  0  0  0  0  0  0  0  0
    4.5263   -0.3298    0.0000 C   0  0  0  0  0  0  0  0  0  0  0  0
   -0.7883   -0.0435    0.0000 C   0  0  0  0  0  0  0  0  0  0  0  0
   -0.9452    1.4478    0.0000 N   0  0  0  0  0  0  0  0  0  0  0  0
   -2.1579   -0.6539    0.0000 C   0  0  0  0  0  0  0  0  0  0  0  0
   -3.1618    0.4602    0.0000 N   0  0  0  0  0  0  0  0  0  0  0  0
   -2.4145    1.7604    0.0000 C   0  0  0  0  0  0  0  0  0  0  0  0
   -3.1628    3.0509    0.0000 N   0  0  0  0  0  0  0  0  0  0  0  0
   -4.6615    3.0522    0.0000 C   0  0  0  0  0  0  0  0  0  0  0  0
   -5.4090    1.7517    0.0000 C   0  0  0  0  0  0  0  0  0  0  0  0
   -4.6576    0.4500    0.0000 C   0  0  0  0  0  0  0  0  0  0  0  0
    4.5261   -2.7575    0.0000 N   0  0  0  0  0  0  0  0  0  0  0  0
  1  2  2  0  0  0  0
  2  3  1  0  0  0  0
  3  6  2  0  0  0  0
  5  4  2  0  0  0  0
  4  1  1  0  0  0  0
  5  6  1  0  0  0  0
  7  8  2  0  0  0  0
  8  5  1  0  0  0  0
  9 10  1  0  0  0  0
 10 13  2  0  0  0  0
 12 11  1  0  0  0  0
 11  9  2  0  0  0  0
  1  9  1  0  0  0  0
 12 13  1  0  0  0  0
 12 17  1  0  0  0  0
 13 14  1  0  0  0  0
 14 15  2  0  0  0  0
 15 16  1  0  0  0  0
 16 17  2  0  0  0  0
  6 18  1  0  0  0  0
  7 18  1  0  0  0  0
M  END
> <Value>
6.0

> <Relation>
=

> <SourceURI>
mol:CHEMBL1682540

$$$$

Generated by Molecular Materials Informatics

 21 23  0  0  0  0  0  0  0  0999 V2000
   -8.1859    0.9199    0.0000 O   0  0  0  0  0  0  0  0  0  0  0  0
    0.1957    2.1333    0.0000 N   0  0  0  0  0  0  0  0  0  0  0  0
    2.9214   -0.5801    0.0000 N   0  0  0  0  0  0  0  0  0  0  0  0
    2.9214    2.4199    0.0000 N   0  0  0  0  0  0  0  0  0  0  0  0
   -0.6859    0.9199    0.0000 C   0  0  0  0  0  0  0  0  0  0  0  0
    0.1957   -0.2936    0.0000 C   0  0  0  0  0  0  0  0  0  0  0  0
    1.6223    0.1699    0.0000 C   0  0  0  0  0  0  0  0  0  0  0  0
    1.6223    1.6699    0.0000 C   0  0  0  0  0  0  0  0  0  0  0  0
   -2.1859    0.9199    0.0000 C   0  0  0  0  0  0  0  0  0  0  0  0
   -5.1859    0.9199    0.0000 C   0  0  0  0  0  0  0  0  0  0  0  0
   -2.9359   -0.3792    0.0000 C   0  0  0  0  0  0  0  0  0  0  0  0
   -2.9359    2.2189    0.0000 C   0  0  0  0  0  0  0  0  0  0  0  0
   -0.2679   -1.7203    0.0000 C   0  0  0  0  0  0  0  0  0  0  0  0
   -6.6859    0.9199    0.0000 C   0  0  0  0  0  0  0  0  0  0  0  0
   -4.4359   -0.3792    0.0000 C   0  0  0  0  0  0  0  0  0  0  0  0
   -4.4359    2.2189    0.0000 C   0  0  0  0  0  0  0  0  0  0  0  0
    4.2203    0.1699    0.0000 C   0  0  0  0  0  0  0  0  0  0  0  0
    4.2203    1.6699    0.0000 C   0  0  0  0  0  0  0  0  0  0  0  0
    0.7359   -2.8351    0.0000 C   0  0  0  0  0  0  0  0  0  0  0  0
   -6.6859   -0.5801    0.0000 C   0  0  0  0  0  0  0  0  0  0  0  0
   -6.6859    2.4199    0.0000 C   0  0  0  0  0  0  0  0  0  0  0  0
  1 14  1  0  0  0  0
  2  5  1  0  0  0  0
  2  8  1  0  0  0  0
  3  7  2  0  0  0  0
  3 17  1  0  0  0  0
  4  8  2  0  0  0  0
  4 18  1  0  0  0  0
  5  6  2  0  0  0  0
  5  9  1  0  0  0  0
  6  7  1  0  0  0  0
  6 13  1  0  0  0  0
  7  8  1  0  0  0  0
  9 11  2  0  0  0  0
  9 12  1  0  0  0  0
 10 14  1  0  0  0  0
 10 15  2  0  0  0  0
 10 16  1  0  0  0  0
 11 15  1  0  0  0  0
 12 16  2  0  0  0  0
 13 19  1  0  0  0  0
 14 20  1  0  0  0  0
 14 21  1  0  0  0  0
 17 18  2  0  0  0  0
M  END
> <Value>
5.499999678657065

> <Relation>
<

> <SourceURI>
mol:CHEMBL1976420

$$$$

Generated by Molecular Materials Informatics

 14 15  0  0  0  0  0  0  0  0999 V2000
   -0.5845   -3.6562    0.0000 N   0  0  0  0  0  0  0  0  0  0  0  0
   -0.5845    2.3436    0.0000 N   0  0  0  0  0  0  0  0  0  0  0  0
    0.7145   -1.4062    0.0000 C   0  0  0  0  0  0  0  0  0  0  0  0
    0.7145    0.0937    0.0000 C   0  0  0  0  0  0  0  0  0  0  0  0
   -0.5845   -2.1562    0.0000 C   0  0  0  0  0  0  0  0  0  0  0  0
   -0.5845    0.8437    0.0000 C   0  0  0  0  0  0  0  0  0  0  0  0
   -1.8836   -1.4062    0.0000 C   0  0  0  0  0  0  0  0  0  0  0  0
    2.0134   -2.1562    0.0000 C   0  0  0  0  0  0  0  0  0  0  0  0
   -1.8836    0.0937    0.0000 C   0  0  0  0  0  0  0  0  0  0  0  0
    2.0134    0.8437    0.0000 C   0  0  0  0  0  0  0  0  0  0  0  0
    3.3125   -1.4062    0.0000 C   0  0  0  0  0  0  0  0  0  0  0  0
    3.3125    0.0937    0.0000 C   0  0  0  0  0  0  0  0  0  0  0  0
    0.7145   -4.4061    0.0000 C   0  0  0  0  0  0  0  0  0  0  0  0
   -1.8836   -4.4061    0.0000 C   0  0  0  0  0  0  0  0  0  0  0  0
  1  5  1  0  0  0  0
  1 13  1  0  0  0  0
  1 14  1  0  0  0  0
  2  6  1  0  0  0  0
  3  4  1  0  0  0  0
  3  5  1  0  0  0  0
  3  8  2  0  0  0  0
  4  6  1  0  0  0  0
  4 10  2  0  0  0  0
  5  7  2  0  0  0  0
  6  9  2  0  0  0  0
  7  9  1  0  0  0  0
  8 11  1  0  0  0  0
 10 12  1  0  0  0  0
 11 12  2  0  0  0  0
M  END
> <Value>
5.300000202445418

> <Relation>
<

> <SourceURI>
mol:CHEMBL1998253

$$$$

Generated by Molecular Materials Informatics

 30 32  0  0  0  0  0  0  0  0999 V2000
   19.7539  -12.8219    0.0000 C   0  0  0  0  0  0  0  0  0  0  0  0
   19.7539  -14.3219    0.0000 C   0  0  0  0  0  0  0  0  0  0  0  0
   22.2008  -14.2991    0.0000 C   0  0  0  0  0  0  0  0  0  0  0  0
   22.2615  -12.7461    0.0000 O   0  0  0  0  0  0  0  0  0  0  0  0
   19.7604   -8.3126    0.0000 C   0  0  0  0  0  0  0  0  0  0  0  0
   18.4628   -6.0576    0.0000 C   0  0  0  0  0  0  0  0  0  0  0  0
   18.4608   -7.5619    0.0000 C   0  0  0  0  0  0  0  0  0  0  0  0
   21.0629   -7.5610    0.0000 C   0  0  0  0  0  0  0  0  0  0  0  0
   21.0578   -6.0510    0.0000 C   0  0  0  0  0  0  0  0  0  0  0  0
   19.7571   -5.3072    0.0000 C   0  0  0  0  0  0  0  0  0  0  0  0
   19.7526   -3.8072    0.0000 Cl  0  0  0  0  0  0  0  0  0  0  0  0
   22.3633   -8.3090    0.0000 N   0  0  0  0  0  0  0  0  0  0  0  0
   23.6611   -7.5570    0.0000 C   0  0  0  0  0  0  0  0  0  0  0  0
   24.9518   -8.3005    0.0000 N   0  0  0  0  0  0  0  0  0  0  0  0
   23.6587   -6.0570    0.0000 O   0  0  0  0  0  0  0  0  0  0  0  0
   24.9216   -9.8003    0.0000 C   0  0  0  0  0  0  0  0  0  0  0  0
   23.5760  -12.0188    0.0000 C   0  0  0  0  0  0  0  0  0  0  0  0
   24.8607  -12.7964    0.0000 C   0  0  0  0  0  0  0  0  0  0  0  0
   26.1789  -12.0648    0.0000 N   0  0  0  0  0  0  0  0  0  0  0  0
   26.2035  -10.5688    0.0000 C   0  0  0  0  0  0  0  0  0  0  0  0
   23.6364  -10.5895    0.0000 N   0  0  0  0  0  0  0  0  0  0  0  0
   19.7600   -9.8126    0.0000 O   0  0  0  0  0  0  0  0  0  0  0  0
   18.4608  -10.5623    0.0000 C   0  0  0  0  0  0  0  0  0  0  0  0
   18.4604  -12.0623    0.0000 C   0  0  0  0  0  0  0  0  0  0  0  0
   24.8660  -14.2964    0.0000 C   0  0  0  0  0  0  0  0  0  0  0  0
   24.8753  -15.7926    0.0000 N   0  0  0  0  0  0  0  0  0  0  0  0
   17.1637   -5.3079    0.0000 O   0  0  0  0  0  0  0  0  0  0  0  0
   15.8648   -6.0583    0.0000 C   0  0  0  0  0  0  0  0  0  0  0  0
   15.8651   -7.5583    0.0000 C   0  0  0  0  0  0  0  0  0  0  0  0
   14.5662   -8.3085    0.0000 O   0  0  0  0  0  0  0  0  0  0  0  0
 14 16  1  0  0  0  0
 16 21  2  0  0  0  0
  8  9  1  0  0  0  0
 21 17  1  0  0  0  0
  1  2  1  0  0  0  0
 17 18  2  0  0  0  0
  9 10  2  0  0  0  0
 18 19  1  0  0  0  0
 10  6  1  0  0  0  0
 19 20  2  0  0  0  0
 20 16  1  0  0  0  0
 17  4  1  0  0  0  0
  2  3  1  0  0  0  0
 10 11  1  0  0  0  0
  5 22  1  0  0  0  0
  6  7  2  0  0  0  0
 22 23  1  0  0  0  0
  8 12  1  0  0  0  0
 23 24  1  0  0  0  0
 24  1  1  0  0  0  0
  7  5  1  0  0  0  0
 18 25  1  0  0  0  0
 12 13  1  0  0  0  0
 25 26  3  0  0  0  0
  3  4  1  0  0  0  0
  6 27  1  0  0  0  0
 13 14  1  0  0  0  0
 27 28  1  0  0  0  0
  5  8  2  0  0  0  0
 28 29  1  0  0  0  0
 13 15  2  0  0  0  0
 29 30  1  0  0  0  0
M  END
> <Value>
5.899998417198648

> <Relation>
<

> <SourceURI>
mol:CHEMBL413779

$$$$

Generated by Molecular Materials Informatics

 25 27  0  0  0  0  0  0  0  0999 V2000
    5.2414    2.8687    0.0000 Cl  0  0  0  0  0  0  0  0  0  0  0  0
   -3.8519   -9.8812    0.0000 F   0  0  0  0  0  0  0  0  0  0  0  0
   -5.3519   -8.3813    0.0000 F   0  0  0  0  0  0  0  0  0  0  0  0
   -2.3519   -8.3813    0.0000 F   0  0  0  0  0  0  0  0  0  0  0  0
   -2.5528   -1.6313    0.0000 O   0  0  0  0  0  0  0  0  0  0  0  0
   -2.5528   -6.1312    0.0000 N   0  0  0  0  0  0  0  0  0  0  0  0
    0.0452   -1.6313    0.0000 N   0  0  0  0  0  0  0  0  0  0  0  0
    0.0452    2.8687    0.0000 N   0  0  0  0  0  0  0  0  0  0  0  0
   -1.2539   -3.8813    0.0000 N   0  0  0  0  0  0  0  0  0  0  0  0
    1.3443    0.6188    0.0000 C   0  0  0  0  0  0  0  0  0  0  0  0
    0.0452   -0.1313    0.0000 C   0  0  0  0  0  0  0  0  0  0  0  0
    1.3443    2.1188    0.0000 C   0  0  0  0  0  0  0  0  0  0  0  0
   -3.8519   -6.8813    0.0000 C   0  0  0  0  0  0  0  0  0  0  0  0
   -3.8519   -8.3813    0.0000 C   0  0  0  0  0  0  0  0  0  0  0  0
   -2.5528   -4.6312    0.0000 C   0  0  0  0  0  0  0  0  0  0  0  0
    2.6432   -0.1313    0.0000 C   0  0  0  0  0  0  0  0  0  0  0  0
   -1.2539   -2.3813    0.0000 C   0  0  0  0  0  0  0  0  0  0  0  0
    2.6432    2.8687    0.0000 C   0  0  0  0  0  0  0  0  0  0  0  0
   -1.2539    0.6188    0.0000 C   0  0  0  0  0  0  0  0  0  0  0  0
    3.9423    2.1188    0.0000 C   0  0  0  0  0  0  0  0  0  0  0  0
   -5.1510   -6.1312    0.0000 C   0  0  0  0  0  0  0  0  0  0  0  0
    3.9423    0.6188    0.0000 C   0  0  0  0  0  0  0  0  0  0  0  0
   -1.2539    2.1188    0.0000 C   0  0  0  0  0  0  0  0  0  0  0  0
   -3.8519   -3.8813    0.0000 C   0  0  0  0  0  0  0  0  0  0  0  0
   -5.1510   -4.6312    0.0000 C   0  0  0  0  0  0  0  0  0  0  0  0
  1 20  1  0  0  0  0
  2 14  1  0  0  0  0
  3 14  1  0  0  0  0
  4 14  1  0  0  0  0
  5 17  2  0  0  0  0
  6 13  1  0  0  0  0
  6 15  2  0  0  0  0
  7 11  1  0  0  0  0
  7 17  1  0  0  0  0
  8 12  1  0  0  0  0
  8 23  2  0  0  0  0
  9 15  1  0  0  0  0
  9 17  1  0  0  0  0
 10 11  1  0  0  0  0
 10 12  1  0  0  0  0
 10 16  2  0  0  0  0
 11 19  2  0  0  0  0
 12 18  2  0  0  0  0
 13 14  1  0  0  0  0
 13 21  2  0  0  0  0
 15 24  1  0  0  0  0
 16 22  1  0  0  0  0
 18 20  1  0  0  0  0
 19 23  1  0  0  0  0
 20 22  2  0  0  0  0
 21 25  1  0  0  0  0
 24 25  2  0  0  0  0
M  END
> <Value>
5.300000202445418

> <Relation>
<

> <SourceURI>
mol:CHEMBL1981744

$$$$

Generated by Molecular Materials Informatics

 22 24  0  0  0  0  0  0  0  0999 V2000
   -2.3497   -3.7334    0.0000 O   0  0  0  0  0  0  0  0  0  0  0  0
    0.2108   -6.2940    0.0000 O   0  0  0  0  0  0  0  0  0  0  0  0
    0.2108   -1.1727    0.0000 N   0  0  0  0  0  0  0  0  0  0  0  0
    2.7716   -3.7334    0.0000 N   0  0  0  0  0  0  0  0  0  0  0  0
   -3.6863    1.0773    0.0000 N   0  0  0  0  0  0  0  0  0  0  0  0
    0.2108   -2.6727    0.0000 C   0  0  0  0  0  0  0  0  0  0  0  0
    1.2716   -3.7334    0.0000 C   0  0  0  0  0  0  0  0  0  0  0  0
   -0.8497   -3.7334    0.0000 C   0  0  0  0  0  0  0  0  0  0  0  0
    0.2108   -4.7940    0.0000 C   0  0  0  0  0  0  0  0  0  0  0  0
   -1.0881   -0.4227    0.0000 C   0  0  0  0  0  0  0  0  0  0  0  0
    3.5216   -2.4343    0.0000 C   0  0  0  0  0  0  0  0  0  0  0  0
    5.0216   -2.4343    0.0000 C   0  0  0  0  0  0  0  0  0  0  0  0
   -1.0881    1.0773    0.0000 C   0  0  0  0  0  0  0  0  0  0  0  0
   -2.3872   -1.1727    0.0000 C   0  0  0  0  0  0  0  0  0  0  0  0
    5.7716   -1.1353    0.0000 C   0  0  0  0  0  0  0  0  0  0  0  0
    5.7716   -3.7334    0.0000 C   0  0  0  0  0  0  0  0  0  0  0  0
   -2.3872    1.8273    0.0000 C   0  0  0  0  0  0  0  0  0  0  0  0
   -3.6863   -0.4227    0.0000 C   0  0  0  0  0  0  0  0  0  0  0  0
    8.0216   -2.4343    0.0000 C   0  0  0  0  0  0  0  0  0  0  0  0
    7.2716   -1.1353    0.0000 C   0  0  0  0  0  0  0  0  0  0  0  0
    7.2716   -3.7334    0.0000 C   0  0  0  0  0  0  0  0  0  0  0  0
    9.5216   -2.4343    0.0000 C   0  0  0  0  0  0  0  0  0  0  0  0
  1  8  2  0  0  0  0
  2  9  2  0  0  0  0
  3  6  1  0  0  0  0
  3 10  1  0  0  0  0
  4  7  1  0  0  0  0
  4 11  1  0  0  0  0
  5 17  2  0  0  0  0
  5 18  1  0  0  0  0
  6  7  2  0  0  0  0
  6  8  1  0  0  0  0
  7  9  1  0  0  0  0
  8  9  1  0  0  0  0
 10 13  2  0  0  0  0
 10 14  1  0  0  0  0
 11 12  1  0  0  0  0
 12 15  2  0  0  0  0
 12 16  1  0  0  0  0
 13 17  1  0  0  0  0
 14 18  2  0  0  0  0
 15 20  1  0  0  0  0
 16 21  2  0  0  0  0
 19 20  2  0  0  0  0
 19 21  1  0  0  0  0
 19 22  1  0  0  0  0
M  END
> <Value>
5.899998417198648

> <Relation>
<

> <SourceURI>
mol:CHEMBL1994864

$$$$

Generated by Molecular Materials Informatics

 33 38  0  0  0  0  0  0  0  0999 V2000
    5.5055   -2.7433    0.0000 S   0  0  0  0  0  0  0  0  0  0  0  0
   11.3484   -4.6046    0.0000 O   0  0  0  0  0  0  0  0  0  0  0  0
    3.0093    3.0387    0.0000 N   0  0  0  0  0  0  0  0  0  0  0  0
    4.2400    2.1811    0.0000 N   0  0  0  0  0  0  0  0  0  0  0  0
   -5.0942    2.1761    0.0000 N   0  0  0  0  0  0  0  0  0  0  0  0
   -7.1451    4.3656    0.0000 N   0  0  0  0  0  0  0  0  0  0  0  0
    2.3049    0.7160    0.0000 C   0  0  0  0  0  0  0  0  0  0  0  0
    1.8133    2.1332    0.0000 C   0  0  0  0  0  0  0  0  0  0  0  0
    0.3137    2.1036    0.0000 C   0  0  0  0  0  0  0  0  0  0  0  0
    3.8046    0.7456    0.0000 C   0  0  0  0  0  0  0  0  0  0  0  0
   -0.1216    0.6681    0.0000 C   0  0  0  0  0  0  0  0  0  0  0  0
    1.1091   -0.1895    0.0000 C   0  0  0  0  0  0  0  0  0  0  0  0
    4.7100   -0.4504    0.0000 C   0  0  0  0  0  0  0  0  0  0  0  0
   -0.7118    3.1983    0.0000 C   0  0  0  0  0  0  0  0  0  0  0  0
   -1.5825    0.3274    0.0000 C   0  0  0  0  0  0  0  0  0  0  0  0
   -2.6080    1.4221    0.0000 C   0  0  0  0  0  0  0  0  0  0  0  0
    6.2098   -0.4208    0.0000 C   0  0  0  0  0  0  0  0  0  0  0  0
   -2.1725    2.8576    0.0000 C   0  0  0  0  0  0  0  0  0  0  0  0
    4.2748   -1.8859    0.0000 C   0  0  0  0  0  0  0  0  0  0  0  0
    6.7013   -1.8379    0.0000 C   0  0  0  0  0  0  0  0  0  0  0  0
   -4.0687    1.0814    0.0000 C   0  0  0  0  0  0  0  0  0  0  0  0
    8.1368   -2.2733    0.0000 C   0  0  0  0  0  0  0  0  0  0  0  0
   -6.5549    1.8354    0.0000 C   0  0  0  0  0  0  0  0  0  0  0  0
   -4.6589    3.6116    0.0000 C   0  0  0  0  0  0  0  0  0  0  0  0
    9.5722   -2.7086    0.0000 C   0  0  0  0  0  0  0  0  0  0  0  0
   -7.5806    2.9302    0.0000 C   0  0  0  0  0  0  0  0  0  0  0  0
   -5.6844    4.7063    0.0000 C   0  0  0  0  0  0  0  0  0  0  0  0
   11.0077   -3.1439    0.0000 C   0  0  0  0  0  0  0  0  0  0  0  0
   13.1246   -6.5008    0.0000 C   0  0  0  0  0  0  0  0  0  0  0  0
   14.1501   -7.5955    0.0000 C   0  0  0  0  0  0  0  0  0  0  0  0
   12.6893   -7.9362    0.0000 C   0  0  0  0  0  0  0  0  0  0  0  0
   12.7839   -5.0401    0.0000 C   0  0  0  0  0  0  0  0  0  0  0  0
   -8.1706    5.4603    0.0000 C   0  0  0  0  0  0  0  0  0  0  0  0
  1 19  1  0  0  0  0
  1 20  1  0  0  0  0
  2 28  1  0  0  0  0
  2 32  1  0  0  0  0
  3  4  1  0  0  0  0
  3  8  1  0  0  0  0
  4 10  2  0  0  0  0
  5 21  1  0  0  0  0
  5 23  1  0  0  0  0
  5 24  1  0  0  0  0
  6 26  1  0  0  0  0
  6 27  1  0  0  0  0
  6 33  1  0  0  0  0
  7  8  2  0  0  0  0
  7 10  1  0  0  0  0
  7 12  1  0  0  0  0
  8  9  1  0  0  0  0
  9 11  1  0  0  0  0
  9 14  2  0  0  0  0
 10 13  1  0  0  0  0
 11 12  1  0  0  0  0
 11 15  2  0  0  0  0
 13 17  1  0  0  0  0
 13 19  2  0  0  0  0
 14 18  1  0  0  0  0
 15 16  1  0  0  0  0
 16 18  2  0  0  0  0
 16 21  1  0  0  0  0
 17 20  2  0  0  0  0
 20 22  1  0  0  0  0
 22 25  3  0  0  0  0
 23 26  1  0  0  0  0
 24 27  1  0  0  0  0
 25 28  1  0  0  0  0
 29 30  1  0  0  0  0
 29 31  1  0  0  0  0
 29 32  1  0  0  0  0
 30 31  1  0  0  0  0
M  END
> <Value>
5.899998417198648

> <Relation>
<

> <SourceURI>
mol:CHEMBL2002446

$$$$

Generated by Molecular Materials Informatics

 23 26  0  0  0  0  0  0  0  0999 V2000
   -5.0970   -6.8243    0.0000 C   0  0  0  0  0  0  0  0  0  0  0  0
   -5.0992   -8.3286    0.0000 N   0  0  0  0  0  0  0  0  0  0  0  0
   -3.7995   -9.0794    0.0000 C   0  0  0  0  0  0  0  0  0  0  0  0
   -3.8028   -6.0739    0.0000 C   0  0  0  0  0  0  0  0  0  0  0  0
   -2.5021   -6.8177    0.0000 C   0  0  0  0  0  0  0  0  0  0  0  0
   -2.5015   -8.3286    0.0000 C   0  0  0  0  0  0  0  0  0  0  0  0
   -1.0645   -8.7952    0.0000 S   0  0  0  0  0  0  0  0  0  0  0  0
   -0.1765   -7.5725    0.0000 C   0  0  0  0  0  0  0  0  0  0  0  0
   -1.0652   -6.3505    0.0000 C   0  0  0  0  0  0  0  0  0  0  0  0
   -3.8072   -4.5739    0.0000 O   0  0  0  0  0  0  0  0  0  0  0  0
   -5.1084   -3.8277    0.0000 C   0  0  0  0  0  0  0  0  0  0  0  0
   -5.1068   -2.3290    0.0000 C   0  0  0  0  0  0  0  0  0  0  0  0
   -6.4066   -1.5832    0.0000 C   0  0  0  0  0  0  0  0  0  0  0  0
   -7.7052   -2.3370    0.0000 C   0  0  0  0  0  0  0  0  0  0  0  0
   -7.6959   -3.8448    0.0000 C   0  0  0  0  0  0  0  0  0  0  0  0
   -6.3952   -4.5841    0.0000 C   0  0  0  0  0  0  0  0  0  0  0  0
   -9.0075   -1.5926    0.0000 I   0  0  0  0  0  0  0  0  0  0  0  0
    1.3235   -7.5719    0.0000 C   0  0  0  0  0  0  0  0  0  0  0  0
    2.2094   -8.7806    0.0000 N   0  0  0  0  0  0  0  0  0  0  0  0
    3.6357   -8.3166    0.0000 C   0  0  0  0  0  0  0  0  0  0  0  0
    3.6352   -6.8166    0.0000 O   0  0  0  0  0  0  0  0  0  0  0  0
    2.2084   -6.3537    0.0000 N   0  0  0  0  0  0  0  0  0  0  0  0
    4.8495   -9.1979    0.0000 O   0  0  0  0  0  0  0  0  0  0  0  0
 10 11  1  0  0  0  0
 11 12  2  0  0  0  0
  2  3  1  0  0  0  0
 12 13  1  0  0  0  0
  3  6  2  0  0  0  0
 13 14  2  0  0  0  0
  1  2  2  0  0  0  0
 14 15  1  0  0  0  0
  5  4  2  0  0  0  0
 15 16  2  0  0  0  0
 16 11  1  0  0  0  0
  6  7  1  0  0  0  0
 14 17  1  0  0  0  0
  7  8  1  0  0  0  0
  8 18  1  0  0  0  0
 18 19  2  0  0  0  0
  8  9  2  0  0  0  0
  9  5  1  0  0  0  0
  4  1  1  0  0  0  0
  4 10  1  0  0  0  0
 19 20  1  0  0  0  0
 20 21  1  0  0  0  0
 21 22  1  0  0  0  0
 22 18  1  0  0  0  0
  5  6  1  0  0  0  0
 20 23  2  0  0  0  0
M  END
> <Value>
6.0999990348465305

> <Relation>
=

> <SourceURI>
mol:CHEMBL497151

$$$$

Generated by Molecular Materials Informatics

 29 33  0  0  0  0  0  0  0  0999 V2000
    4.9525   -0.0017    0.0000 N   0  0  0  0  0  0  0  0  0  0  0  0
    2.7354   -0.9888    0.0000 N   0  0  0  0  0  0  0  0  0  0  0  0
    4.2025   -1.3008    0.0000 N   0  0  0  0  0  0  0  0  0  0  0  0
   -2.7452    3.2165    0.0000 N   0  0  0  0  0  0  0  0  0  0  0  0
   -3.6268    2.0029    0.0000 N   0  0  0  0  0  0  0  0  0  0  0  0
   -3.2086   -0.6371    0.0000 N   0  0  0  0  0  0  0  0  0  0  0  0
    3.9488    1.1131    0.0000 C   0  0  0  0  0  0  0  0  0  0  0  0
    2.5785    0.5029    0.0000 C   0  0  0  0  0  0  0  0  0  0  0  0
    1.2796    1.2529    0.0000 C   0  0  0  0  0  0  0  0  0  0  0  0
    4.2607    2.5803    0.0000 C   0  0  0  0  0  0  0  0  0  0  0  0
   -1.3186    1.2529    0.0000 C   0  0  0  0  0  0  0  0  0  0  0  0
   -0.0195    0.5029    0.0000 C   0  0  0  0  0  0  0  0  0  0  0  0
   -1.3186    2.7529    0.0000 C   0  0  0  0  0  0  0  0  0  0  0  0
    1.2796    2.7529    0.0000 C   0  0  0  0  0  0  0  0  0  0  0  0
   -2.7452    0.7894    0.0000 C   0  0  0  0  0  0  0  0  0  0  0  0
    5.6874    3.0438    0.0000 C   0  0  0  0  0  0  0  0  0  0  0  0
   -0.0195    3.5029    0.0000 C   0  0  0  0  0  0  0  0  0  0  0  0
    6.4443    0.1551    0.0000 C   0  0  0  0  0  0  0  0  0  0  0  0
    3.1459    3.5840    0.0000 C   0  0  0  0  0  0  0  0  0  0  0  0
    7.3259   -1.0584    0.0000 C   0  0  0  0  0  0  0  0  0  0  0  0
    5.9992    4.5111    0.0000 C   0  0  0  0  0  0  0  0  0  0  0  0
    3.4579    5.0513    0.0000 C   0  0  0  0  0  0  0  0  0  0  0  0
    4.8845    5.5147    0.0000 C   0  0  0  0  0  0  0  0  0  0  0  0
    6.8019    2.0402    0.0000 C   0  0  0  0  0  0  0  0  0  0  0  0
    8.8178   -0.9017    0.0000 C   0  0  0  0  0  0  0  0  0  0  0  0
    6.7159   -2.4288    0.0000 C   0  0  0  0  0  0  0  0  0  0  0  0
    9.6994   -2.1151    0.0000 C   0  0  0  0  0  0  0  0  0  0  0  0
    7.5976   -3.6422    0.0000 C   0  0  0  0  0  0  0  0  0  0  0  0
    9.0894   -3.4855    0.0000 C   0  0  0  0  0  0  0  0  0  0  0  0
  1  3  1  0  0  0  0
  1  7  1  0  0  0  0
  1 18  1  0  0  0  0
  2  3  2  0  0  0  0
  2  8  1  0  0  0  0
  4  5  1  0  0  0  0
  4 13  1  0  0  0  0
  5 15  2  0  0  0  0
  6 15  1  0  0  0  0
  7  8  2  0  0  0  0
  7 10  1  0  0  0  0
  8  9  1  0  0  0  0
  9 12  1  0  0  0  0
  9 14  2  0  0  0  0
 10 16  1  0  0  0  0
 10 19  2  0  0  0  0
 11 12  2  0  0  0  0
 11 13  1  0  0  0  0
 11 15  1  0  0  0  0
 13 17  2  0  0  0  0
 14 17  1  0  0  0  0
 16 21  2  0  0  0  0
 16 24  1  0  0  0  0
 18 20  1  0  0  0  0
 19 22  1  0  0  0  0
 20 25  2  0  0  0  0
 20 26  1  0  0  0  0
 21 23  1  0  0  0  0
 22 23  2  0  0  0  0
 25 27  1  0  0  0  0
 26 28  2  0  0  0  0
 27 29  2  0  0  0  0
 28 29  1  0  0  0  0
M  END
> <Value>
6.399996913372259

> <Relation>
=

> <SourceURI>
mol:CHEMBL2000029

$$$$

Generated by Molecular Materials Informatics

 36 40  0  0  0  0  0  0  0  0999 V2000
    8.7394    0.2188    0.0000 F   0  0  0  0  0  0  0  0  0  0  0  0
    6.1414    4.7188    0.0000 F   0  0  0  0  0  0  0  0  0  0  0  0
    0.7672   -4.2656    0.0000 O   0  0  0  0  0  0  0  0  0  0  0  0
    0.2271   -1.7243    0.0000 O   0  0  0  0  0  0  0  0  0  0  0  0
   -2.2439   -0.9214    0.0000 N   0  0  0  0  0  0  0  0  0  0  0  0
   -2.6620    1.7188    0.0000 N   0  0  0  0  0  0  0  0  0  0  0  0
   -1.7804    2.9323    0.0000 N   0  0  0  0  0  0  0  0  0  0  0  0
   -3.0944   -7.7425    0.0000 N   0  0  0  0  0  0  0  0  0  0  0  0
   -4.0213  -10.5956    0.0000 N   0  0  0  0  0  0  0  0  0  0  0  0
   -0.3539    0.9688    0.0000 C   0  0  0  0  0  0  0  0  0  0  0  0
   -1.7804    0.5052    0.0000 C   0  0  0  0  0  0  0  0  0  0  0  0
   -0.3539    2.4688    0.0000 C   0  0  0  0  0  0  0  0  0  0  0  0
   -1.7039   -3.4626    0.0000 C   0  0  0  0  0  0  0  0  0  0  0  0
   -1.2402   -2.0361    0.0000 C   0  0  0  0  0  0  0  0  0  0  0  0
    0.9452    0.2188    0.0000 C   0  0  0  0  0  0  0  0  0  0  0  0
   -0.7000   -4.5774    0.0000 C   0  0  0  0  0  0  0  0  0  0  0  0
    2.2443    0.9688    0.0000 C   0  0  0  0  0  0  0  0  0  0  0  0
   -2.6308   -6.3159    0.0000 C   0  0  0  0  0  0  0  0  0  0  0  0
    0.9452    3.2188    0.0000 C   0  0  0  0  0  0  0  0  0  0  0  0
   -1.1637   -6.0039    0.0000 C   0  0  0  0  0  0  0  0  0  0  0  0
    2.2443    2.4688    0.0000 C   0  0  0  0  0  0  0  0  0  0  0  0
   -3.1709   -3.7745    0.0000 C   0  0  0  0  0  0  0  0  0  0  0  0
   -3.6346   -5.2012    0.0000 C   0  0  0  0  0  0  0  0  0  0  0  0
    3.5432    0.2188    0.0000 C   0  0  0  0  0  0  0  0  0  0  0  0
    4.8423    0.9688    0.0000 C   0  0  0  0  0  0  0  0  0  0  0  0
   -2.0906   -8.8572    0.0000 C   0  0  0  0  0  0  0  0  0  0  0  0
   -4.5615   -8.0543    0.0000 C   0  0  0  0  0  0  0  0  0  0  0  0
    4.8423    2.4688    0.0000 C   0  0  0  0  0  0  0  0  0  0  0  0
    6.1414    0.2188    0.0000 C   0  0  0  0  0  0  0  0  0  0  0  0
    7.4403    0.9688    0.0000 C   0  0  0  0  0  0  0  0  0  0  0  0
    6.1414    3.2188    0.0000 C   0  0  0  0  0  0  0  0  0  0  0  0
   -2.5542  -10.2837    0.0000 C   0  0  0  0  0  0  0  0  0  0  0  0
   -5.0251   -9.4808    0.0000 C   0  0  0  0  0  0  0  0  0  0  0  0
    7.4403    2.4688    0.0000 C   0  0  0  0  0  0  0  0  0  0  0  0
    1.7709   -5.3803    0.0000 C   0  0  0  0  0  0  0  0  0  0  0  0
   -4.4849  -12.0221    0.0000 C   0  0  0  0  0  0  0  0  0  0  0  0
  1 30  1  0  0  0  0
  2 31  1  0  0  0  0
  3 16  1  0  0  0  0
  3 35  1  0  0  0  0
  4 14  2  0  0  0  0
  5 11  1  0  0  0  0
  5 14  1  0  0  0  0
  6  7  1  0  0  0  0
  6 11  2  0  0  0  0
  7 12  1  0  0  0  0
  8 18  1  0  0  0  0
  8 26  1  0  0  0  0
  8 27  1  0  0  0  0
  9 32  1  0  0  0  0
  9 33  1  0  0  0  0
  9 36  1  0  0  0  0
 10 11  1  0  0  0  0
 10 12  1  0  0  0  0
 10 15  2  0  0  0  0
 12 19  2  0  0  0  0
 13 14  1  0  0  0  0
 13 16  1  0  0  0  0
 13 22  2  0  0  0  0
 15 17  1  0  0  0  0
 16 20  2  0  0  0  0
 17 21  2  0  0  0  0
 17 24  1  0  0  0  0
 18 20  1  0  0  0  0
 18 23  2  0  0  0  0
 19 21  1  0  0  0  0
 22 23  1  0  0  0  0
 24 25  1  0  0  0  0
 25 28  2  0  0  0  0
 25 29  1  0  0  0  0
 26 32  1  0  0  0  0
 27 33  1  0  0  0  0
 28 31  1  0  0  0  0
 29 30  2  0  0  0  0
 30 34  1  0  0  0  0
 31 34  2  0  0  0  0
M  END
> <Value>
5.40000018605658

> <Relation>
=

> <SourceURI>
mol:CHEMBL1973961

$$$$

Generated by Molecular Materials Informatics

 28 30  0  0  0  0  0  0  0  0999 V2000
   13.4277   -2.9993    0.0000 N   0  0  0  0  0  0  0  0  0  0  0  0
   13.4256   -4.5036    0.0000 C   0  0  0  0  0  0  0  0  0  0  0  0
   14.7252   -5.2542    0.0000 N   0  0  0  0  0  0  0  0  0  0  0  0
   16.0279   -4.5027    0.0000 C   0  0  0  0  0  0  0  0  0  0  0  0
   16.0226   -2.9927    0.0000 C   0  0  0  0  0  0  0  0  0  0  0  0
   14.7219   -2.2487    0.0000 C   0  0  0  0  0  0  0  0  0  0  0  0
   17.3281   -5.2507    0.0000 N   0  0  0  0  0  0  0  0  0  0  0  0
   17.3305   -6.7507    0.0000 C   0  0  0  0  0  0  0  0  0  0  0  0
   18.6306   -7.4985    0.0000 C   0  0  0  0  0  0  0  0  0  0  0  0
   18.6257   -8.9929    0.0000 C   0  0  0  0  0  0  0  0  0  0  0  0
   19.9185   -9.7407    0.0000 C   0  0  0  0  0  0  0  0  0  0  0  0
   21.2206   -8.9951    0.0000 C   0  0  0  0  0  0  0  0  0  0  0  0
   21.2219   -7.4933    0.0000 C   0  0  0  0  0  0  0  0  0  0  0  0
   19.9210   -6.7371    0.0000 C   0  0  0  0  0  0  0  0  0  0  0  0
   22.5181   -9.7478    0.0000 C   0  0  0  0  0  0  0  0  0  0  0  0
   22.5148  -11.2478    0.0000 N   0  0  0  0  0  0  0  0  0  0  0  0
   12.1259   -5.2526    0.0000 N   0  0  0  0  0  0  0  0  0  0  0  0
   10.8276   -4.5015    0.0000 C   0  0  0  0  0  0  0  0  0  0  0  0
   17.3228   -2.2353    0.0000 N   0  3  0  0  0  0  0  0  0  0  0  0
   17.3172   -0.7353    0.0000 O   0  0  0  0  0  0  0  0  0  0  0  0
   18.6246   -2.9804    0.0000 O   0  5  0  0  0  0  0  0  0  0  0  0
    9.5279   -5.2506    0.0000 C   0  0  0  0  0  0  0  0  0  0  0  0
    8.2308   -4.4955    0.0000 C   0  0  0  0  0  0  0  0  0  0  0  0
    6.9321   -5.2431    0.0000 C   0  0  0  0  0  0  0  0  0  0  0  0
    6.9301   -6.7447    0.0000 C   0  0  0  0  0  0  0  0  0  0  0  0
    8.2377   -7.4955    0.0000 C   0  0  0  0  0  0  0  0  0  0  0  0
    9.5310   -6.7435    0.0000 C   0  0  0  0  0  0  0  0  0  0  0  0
   10.8321   -7.4902    0.0000 Cl  0  0  0  0  0  0  0  0  0  0  0  0
 12 13  1  0  0  0  0
 13 14  1  0  0  0  0
  4  7  1  0  0  0  0
 12 15  1  0  0  0  0
  3  4  2  0  0  0  0
 15 16  1  0  0  0  0
  7  8  1  0  0  0  0
  2 17  1  0  0  0  0
 17 18  1  0  0  0  0
  8  9  1  0  0  0  0
  9 10  1  0  0  0  0
  4  5  1  0  0  0  0
 19 20  2  0  0  0  0
 19 21  1  0  0  0  0
  5 19  1  0  0  0  0
  2  3  1  0  0  0  0
 18 22  1  0  0  0  0
  5  6  2  0  0  0  0
 22 23  2  0  0  0  0
  6  1  1  0  0  0  0
 23 24  1  0  0  0  0
  1  2  2  0  0  0  0
 24 25  2  0  0  0  0
  9 14  1  0  0  0  0
 25 26  1  0  0  0  0
 10 11  1  0  0  0  0
 26 27  2  0  0  0  0
 27 22  1  0  0  0  0
 11 12  1  0  0  0  0
 27 28  1  0  0  0  0
M  CHG  2  19   1  21  -1
M  END
> <Value>
5.899998417198648

> <Relation>
<

> <SourceURI>
mol:CHEMBL246970

$$$$

Generated by Molecular Materials Informatics

 28 31  0  0  0  0  0  0  0  0999 V2000
    3.1837   -1.1860    0.0000 N   0  0  0  0  0  0  0  0  0  0  0  0
    4.4716    1.0716    0.0000 C   0  0  0  0  0  0  0  0  0  0  0  0
    1.8807   -0.4360    0.0000 C   0  0  0  0  0  0  0  0  0  0  0  0
    4.4792   -0.4360    0.0000 C   0  0  0  0  0  0  0  0  0  0  0  0
    3.1610    1.8140    0.0000 C   0  0  0  0  0  0  0  0  0  0  0  0
    1.8807    1.0640    0.0000 C   0  0  0  0  0  0  0  0  0  0  0  0
    3.1837   -2.6860    0.0000 C   0  0  0  0  0  0  0  0  0  0  0  0
    5.7670    1.8367    0.0000 C   0  0  0  0  0  0  0  0  0  0  0  0
    0.5701   -1.2011    0.0000 C   0  0  0  0  0  0  0  0  0  0  0  0
    4.4792   -3.4284    0.0000 C   0  0  0  0  0  0  0  0  0  0  0  0
    0.5701    1.8140    0.0000 C   0  0  0  0  0  0  0  0  0  0  0  0
   -0.7253   -0.4511    0.0000 C   0  0  0  0  0  0  0  0  0  0  0  0
    1.8807   -3.4360    0.0000 C   0  0  0  0  0  0  0  0  0  0  0  0
    3.1610    3.3140    0.0000 O   0  0  0  0  0  0  0  0  0  0  0  0
    4.4792   -4.9133    0.0000 C   0  0  0  0  0  0  0  0  0  0  0  0
   -0.7253    1.0640    0.0000 C   0  0  0  0  0  0  0  0  0  0  0  0
    5.7519    3.3367    0.0000 O   0  0  0  0  0  0  0  0  0  0  0  0
   -4.6117   -2.6860    0.0000 N   0  0  0  0  0  0  0  0  0  0  0  0
   -2.0208   -1.2011    0.0000 C   0  0  0  0  0  0  0  0  0  0  0  0
    7.0701    1.0867    0.0000 N   0  0  0  0  0  0  0  0  0  0  0  0
    3.1837   -5.6860    0.0000 C   0  0  0  0  0  0  0  0  0  0  0  0
    1.8807   -4.9360    0.0000 C   0  0  0  0  0  0  0  0  0  0  0  0
    3.1837   -7.1784    0.0000 O   0  0  0  0  0  0  0  0  0  0  0  0
    5.7747   -2.6633    0.0000 C   0  0  0  0  0  0  0  0  0  0  0  0
   -3.3163   -3.4360    0.0000 C   0  0  0  0  0  0  0  0  0  0  0  0
   -4.6117   -1.1860    0.0000 C   0  0  0  0  0  0  0  0  0  0  0  0
   -2.0208   -2.6860    0.0000 C   0  0  0  0  0  0  0  0  0  0  0  0
   -3.3163   -0.4360    0.0000 C   0  0  0  0  0  0  0  0  0  0  0  0
  2  4  2  0  0  0  0
  3  1  1  0  0  0  0
  4  1  1  0  0  0  0
  5  2  1  0  0  0  0
  6  3  1  0  0  0  0
  7  1  1  0  0  0  0
  8  2  1  0  0  0  0
  9  3  2  0  0  0  0
 10  7  1  0  0  0  0
 11  6  2  0  0  0  0
 12  9  1  0  0  0  0
 13  7  2  0  0  0  0
 14  5  2  0  0  0  0
 15 10  2  0  0  0  0
 16 12  2  0  0  0  0
 17  8  2  0  0  0  0
 18 26  2  0  0  0  0
 19 12  1  0  0  0  0
 20  8  1  0  0  0  0
 21 22  2  0  0  0  0
 22 13  1  0  0  0  0
 23 21  1  0  0  0  0
 24 10  1  0  0  0  0
 25 27  2  0  0  0  0
 26 28  1  0  0  0  0
 27 19  1  0  0  0  0
 28 19  2  0  0  0  0
  5  6  1  0  0  0  0
 15 21  1  0  0  0  0
 11 16  1  0  0  0  0
 25 18  1  0  0  0  0
M  END
> <Value>
5.899998417198648

> <Relation>
<

> <SourceURI>
mol:CHEMBL340921

$$$$

Generated by Molecular Materials Informatics

 37 40  0  0  0  0  0  0  0  0999 V2000
  -13.2715   -4.5657    0.0000 O   0  0  0  0  0  0  0  0  0  0  0  0
   -3.8519   -1.5287    0.0000 O   0  0  0  0  0  0  0  0  0  0  0  0
    3.9423   -3.0287    0.0000 O   0  0  0  0  0  0  0  0  0  0  0  0
   -9.0481   -3.0287    0.0000 N   0  0  0  0  0  0  0  0  0  0  0  0
   -9.2048   -1.5368    0.0000 N   0  0  0  0  0  0  0  0  0  0  0  0
  -10.7303   -5.1059    0.0000 N   0  0  0  0  0  0  0  0  0  0  0  0
  -12.4686   -7.0367    0.0000 N   0  0  0  0  0  0  0  0  0  0  0  0
   -2.5528   -3.7787    0.0000 N   0  0  0  0  0  0  0  0  0  0  0  0
  -10.4185   -3.6387    0.0000 C   0  0  0  0  0  0  0  0  0  0  0  0
  -10.6721   -1.2250    0.0000 C   0  0  0  0  0  0  0  0  0  0  0  0
   -7.7490   -3.7787    0.0000 C   0  0  0  0  0  0  0  0  0  0  0  0
  -11.4221   -2.5239    0.0000 C   0  0  0  0  0  0  0  0  0  0  0  0
  -11.2821    0.1453    0.0000 C   0  0  0  0  0  0  0  0  0  0  0  0
   -6.4499   -3.0287    0.0000 C   0  0  0  0  0  0  0  0  0  0  0  0
   -5.1510   -3.7787    0.0000 C   0  0  0  0  0  0  0  0  0  0  0  0
   -7.7490   -5.2787    0.0000 C   0  0  0  0  0  0  0  0  0  0  0  0
  -12.1568   -5.5694    0.0000 C   0  0  0  0  0  0  0  0  0  0  0  0
  -11.3539   -8.0403    0.0000 C   0  0  0  0  0  0  0  0  0  0  0  0
  -11.6659   -9.5076    0.0000 C   0  0  0  0  0  0  0  0  0  0  0  0
  -10.5512  -10.5112    0.0000 C   0  0  0  0  0  0  0  0  0  0  0  0
   -5.1510   -5.2787    0.0000 C   0  0  0  0  0  0  0  0  0  0  0  0
   -6.4499   -6.0287    0.0000 C   0  0  0  0  0  0  0  0  0  0  0  0
   -3.8519   -3.0287    0.0000 C   0  0  0  0  0  0  0  0  0  0  0  0
  -11.8923    1.5157    0.0000 C   0  0  0  0  0  0  0  0  0  0  0  0
  -12.6525   -0.4647    0.0000 C   0  0  0  0  0  0  0  0  0  0  0  0
   -9.9119    0.7555    0.0000 C   0  0  0  0  0  0  0  0  0  0  0  0
   -9.9274   -7.5768    0.0000 C   0  0  0  0  0  0  0  0  0  0  0  0
  -13.0925   -9.9712    0.0000 C   0  0  0  0  0  0  0  0  0  0  0  0
   -9.1245  -10.0477    0.0000 C   0  0  0  0  0  0  0  0  0  0  0  0
  -10.8630  -11.9785    0.0000 C   0  0  0  0  0  0  0  0  0  0  0  0
   -8.8126   -8.5805    0.0000 C   0  0  0  0  0  0  0  0  0  0  0  0
  -13.4043  -11.4383    0.0000 C   0  0  0  0  0  0  0  0  0  0  0  0
  -12.2895  -12.4421    0.0000 C   0  0  0  0  0  0  0  0  0  0  0  0
   -1.2539   -3.0287    0.0000 C   0  0  0  0  0  0  0  0  0  0  0  0
    0.0452   -3.7787    0.0000 C   0  0  0  0  0  0  0  0  0  0  0  0
    1.3443   -3.0287    0.0000 C   0  0  0  0  0  0  0  0  0  0  0  0
    2.6434   -3.7787    0.0000 C   0  0  0  0  0  0  0  0  0  0  0  0
  1 17  2  0  0  0  0
  2 23  2  0  0  0  0
  3 37  1  0  0  0  0
  4  5  1  0  0  0  0
  4  9  1  0  0  0  0
  4 11  1  0  0  0  0
  5 10  2  0  0  0  0
  6  9  1  0  0  0  0
  6 17  1  0  0  0  0
  7 17  1  0  0  0  0
  7 18  1  0  0  0  0
  8 23  1  0  0  0  0
  8 34  1  0  0  0  0
  9 12  2  0  0  0  0
 10 12  1  0  0  0  0
 10 13  1  0  0  0  0
 11 14  1  0  0  0  0
 11 16  2  0  0  0  0
 13 24  1  0  0  0  0
 13 25  1  0  0  0  0
 13 26  1  0  0  0  0
 14 15  2  0  0  0  0
 15 21  1  0  0  0  0
 15 23  1  0  0  0  0
 16 22  1  0  0  0  0
 18 19  1  0  0  0  0
 18 27  2  0  0  0  0
 19 20  1  0  0  0  0
 19 28  2  0  0  0  0
 20 29  1  0  0  0  0
 20 30  2  0  0  0  0
 21 22  2  0  0  0  0
 27 31  1  0  0  0  0
 28 32  1  0  0  0  0
 29 31  2  0  0  0  0
 30 33  1  0  0  0  0
 32 33  2  0  0  0  0
 34 35  1  0  0  0  0
 35 36  1  0  0  0  0
 36 37  1  0  0  0  0
M  END
> <Value>
5.300000202445418

> <Relation>
<

> <SourceURI>
mol:CHEMBL1994977

$$$$

Generated by Molecular Materials Informatics

 31 33  0  0  0  0  0  0  0  0999 V2000
   -2.6794  -12.4969    0.0000 C   0  0  0  0  0  0  0  0  0  0  0  0
   -2.6794  -13.9969    0.0000 C   0  0  0  0  0  0  0  0  0  0  0  0
   -0.2325  -13.9742    0.0000 C   0  0  0  0  0  0  0  0  0  0  0  0
   -0.1720  -12.4211    0.0000 O   0  0  0  0  0  0  0  0  0  0  0  0
   -2.6729   -7.9876    0.0000 C   0  0  0  0  0  0  0  0  0  0  0  0
   -3.9705   -5.7325    0.0000 C   0  0  0  0  0  0  0  0  0  0  0  0
   -3.9727   -7.2369    0.0000 C   0  0  0  0  0  0  0  0  0  0  0  0
   -1.3703   -7.2360    0.0000 C   0  0  0  0  0  0  0  0  0  0  0  0
   -1.3756   -5.7260    0.0000 C   0  0  0  0  0  0  0  0  0  0  0  0
   -2.6761   -4.9822    0.0000 C   0  0  0  0  0  0  0  0  0  0  0  0
   -2.6807   -3.4822    0.0000 Cl  0  0  0  0  0  0  0  0  0  0  0  0
   -0.0701   -7.9840    0.0000 N   0  0  0  0  0  0  0  0  0  0  0  0
    1.2277   -7.2320    0.0000 C   0  0  0  0  0  0  0  0  0  0  0  0
    2.5186   -7.9754    0.0000 N   0  0  0  0  0  0  0  0  0  0  0  0
    1.2253   -5.7320    0.0000 O   0  0  0  0  0  0  0  0  0  0  0  0
    2.4884   -9.4753    0.0000 C   0  0  0  0  0  0  0  0  0  0  0  0
    1.1428  -11.6938    0.0000 C   0  0  0  0  0  0  0  0  0  0  0  0
    2.4275  -12.4714    0.0000 C   0  0  0  0  0  0  0  0  0  0  0  0
    3.7457  -11.7398    0.0000 N   0  0  0  0  0  0  0  0  0  0  0  0
    3.7700  -10.2438    0.0000 C   0  0  0  0  0  0  0  0  0  0  0  0
    1.2031  -10.2645    0.0000 N   0  0  0  0  0  0  0  0  0  0  0  0
   -2.6732   -9.4876    0.0000 O   0  0  0  0  0  0  0  0  0  0  0  0
   -3.9725  -10.2373    0.0000 C   0  0  0  0  0  0  0  0  0  0  0  0
   -3.9729  -11.7373    0.0000 C   0  0  0  0  0  0  0  0  0  0  0  0
    2.4328  -13.9714    0.0000 C   0  0  0  0  0  0  0  0  0  0  0  0
    2.4420  -15.4676    0.0000 N   0  0  0  0  0  0  0  0  0  0  0  0
   -5.2698   -4.9829    0.0000 O   0  0  0  0  0  0  0  0  0  0  0  0
   -6.5685   -5.7333    0.0000 C   0  0  0  0  0  0  0  0  0  0  0  0
   -6.5681   -7.2333    0.0000 C   0  0  0  0  0  0  0  0  0  0  0  0
   -7.8670   -7.9834    0.0000 C   0  0  0  0  0  0  0  0  0  0  0  0
   -7.8667   -9.4834    0.0000 O   0  0  0  0  0  0  0  0  0  0  0  0
 14 16  1  0  0  0  0
 16 21  2  0  0  0  0
  8  9  1  0  0  0  0
 21 17  1  0  0  0  0
  1  2  1  0  0  0  0
 17 18  2  0  0  0  0
  9 10  2  0  0  0  0
 18 19  1  0  0  0  0
 10  6  1  0  0  0  0
 19 20  2  0  0  0  0
 20 16  1  0  0  0  0
 17  4  1  0  0  0  0
  2  3  1  0  0  0  0
 10 11  1  0  0  0  0
  5 22  1  0  0  0  0
  6  7  2  0  0  0  0
 22 23  1  0  0  0  0
  8 12  1  0  0  0  0
 23 24  1  0  0  0  0
 24  1  1  0  0  0  0
  7  5  1  0  0  0  0
 18 25  1  0  0  0  0
 12 13  1  0  0  0  0
 25 26  3  0  0  0  0
  3  4  1  0  0  0  0
  6 27  1  0  0  0  0
 13 14  1  0  0  0  0
 27 28  1  0  0  0  0
  5  8  2  0  0  0  0
 28 29  1  0  0  0  0
 13 15  2  0  0  0  0
 29 30  1  0  0  0  0
 30 31  1  0  0  0  0
M  END
> <Value>
5.899998417198648

> <Relation>
<

> <SourceURI>
mol:CHEMBL373598

$$$$

Generated by Molecular Materials Informatics

 33 38  0  0  0  0  0  0  0  0999 V2000
   -5.3015   -2.9074    0.0000 S   0  0  0  0  0  0  0  0  0  0  0  0
  -10.1051    8.4126    0.0000 O   0  0  0  0  0  0  0  0  0  0  0  0
    6.9038   -4.4074    0.0000 O   0  0  0  0  0  0  0  0  0  0  0  0
   -7.6915    3.6590    0.0000 N   0  0  0  0  0  0  0  0  0  0  0  0
    1.5802   -4.1210    0.0000 N   0  0  0  0  0  0  0  0  0  0  0  0
   -9.7933    2.4455    0.0000 N   0  0  0  0  0  0  0  0  0  0  0  0
    1.5802   -1.6939    0.0000 N   0  0  0  0  0  0  0  0  0  0  0  0
   -8.3015    2.2886    0.0000 C   0  0  0  0  0  0  0  0  0  0  0  0
    0.6985   -2.9074    0.0000 C   0  0  0  0  0  0  0  0  0  0  0  0
   -8.8062    4.6626    0.0000 C   0  0  0  0  0  0  0  0  0  0  0  0
    3.0067   -3.6574    0.0000 C   0  0  0  0  0  0  0  0  0  0  0  0
  -10.1051    3.9126    0.0000 C   0  0  0  0  0  0  0  0  0  0  0  0
    3.0067   -2.1574    0.0000 C   0  0  0  0  0  0  0  0  0  0  0  0
   -7.5515    0.9897    0.0000 C   0  0  0  0  0  0  0  0  0  0  0  0
   -0.8015   -2.9074    0.0000 C   0  0  0  0  0  0  0  0  0  0  0  0
   -8.8062    6.1626    0.0000 C   0  0  0  0  0  0  0  0  0  0  0  0
    4.3058   -4.4074    0.0000 C   0  0  0  0  0  0  0  0  0  0  0  0
  -11.4042    4.6626    0.0000 C   0  0  0  0  0  0  0  0  0  0  0  0
    4.3058   -1.4074    0.0000 C   0  0  0  0  0  0  0  0  0  0  0  0
   -6.0515   -1.6085    0.0000 C   0  0  0  0  0  0  0  0  0  0  0  0
   -3.8015   -2.9074    0.0000 C   0  0  0  0  0  0  0  0  0  0  0  0
  -10.1051    6.9126    0.0000 C   0  0  0  0  0  0  0  0  0  0  0  0
    5.6049   -3.6574    0.0000 C   0  0  0  0  0  0  0  0  0  0  0  0
   -6.0515    0.9897    0.0000 C   0  0  0  0  0  0  0  0  0  0  0  0
   -1.5515   -4.2065    0.0000 C   0  0  0  0  0  0  0  0  0  0  0  0
   -1.5515   -1.6085    0.0000 C   0  0  0  0  0  0  0  0  0  0  0  0
   -8.3015   -0.3094    0.0000 C   0  0  0  0  0  0  0  0  0  0  0  0
  -11.4042    6.1626    0.0000 C   0  0  0  0  0  0  0  0  0  0  0  0
    5.6049   -2.1574    0.0000 C   0  0  0  0  0  0  0  0  0  0  0  0
   -5.3015   -0.3094    0.0000 C   0  0  0  0  0  0  0  0  0  0  0  0
   -3.0515   -4.2065    0.0000 C   0  0  0  0  0  0  0  0  0  0  0  0
   -3.0515   -1.6085    0.0000 C   0  0  0  0  0  0  0  0  0  0  0  0
   -7.5515   -1.6085    0.0000 C   0  0  0  0  0  0  0  0  0  0  0  0
  1 20  1  0  0  0  0
  1 21  1  0  0  0  0
  2 22  1  0  0  0  0
  3 23  1  0  0  0  0
  4  8  1  0  0  0  0
  4 10  1  0  0  0  0
  5  9  1  0  0  0  0
  5 11  1  0  0  0  0
  6  8  2  0  0  0  0
  6 12  1  0  0  0  0
  7  9  2  0  0  0  0
  7 13  1  0  0  0  0
  8 14  1  0  0  0  0
  9 15  1  0  0  0  0
 10 12  1  0  0  0  0
 10 16  2  0  0  0  0
 11 13  1  0  0  0  0
 11 17  2  0  0  0  0
 12 18  2  0  0  0  0
 13 19  2  0  0  0  0
 14 24  2  0  0  0  0
 14 27  1  0  0  0  0
 15 25  2  0  0  0  0
 15 26  1  0  0  0  0
 16 22  1  0  0  0  0
 17 23  1  0  0  0  0
 18 28  1  0  0  0  0
 19 29  1  0  0  0  0
 20 30  2  0  0  0  0
 20 33  1  0  0  0  0
 21 31  2  0  0  0  0
 21 32  1  0  0  0  0
 22 28  2  0  0  0  0
 23 29  2  0  0  0  0
 24 30  1  0  0  0  0
 25 31  1  0  0  0  0
 26 32  2  0  0  0  0
 27 33  2  0  0  0  0
M  END
> <Value>
5.300000202445418

> <Relation>
<

> <SourceURI>
mol:CHEMBL2001149

$$$$

Generated by Molecular Materials Informatics

 26 28  0  0  0  0  0  0  0  0999 V2000
    5.0338    2.8200    0.0000 F   0  0  0  0  0  0  0  0  0  0  0  0
    2.9847    3.3691    0.0000 F   0  0  0  0  0  0  0  0  0  0  0  0
    4.4847    0.7710    0.0000 F   0  0  0  0  0  0  0  0  0  0  0  0
    1.1366   -2.4298    0.0000 O   0  0  0  0  0  0  0  0  0  0  0  0
   -1.4613    2.0701    0.0000 N   0  0  0  0  0  0  0  0  0  0  0  0
   -1.4613   -2.4298    0.0000 N   0  0  0  0  0  0  0  0  0  0  0  0
   -0.1622   -4.6797    0.0000 N   0  0  0  0  0  0  0  0  0  0  0  0
    1.1366   -6.9297    0.0000 N   0  0  0  0  0  0  0  0  0  0  0  0
    6.3326   -8.4296    0.0000 N   0  0  0  0  0  0  0  0  0  0  0  0
   -0.1622   -0.1799    0.0000 C   0  0  0  0  0  0  0  0  0  0  0  0
   -0.1622    1.3201    0.0000 C   0  0  0  0  0  0  0  0  0  0  0  0
    2.4357    1.3201    0.0000 C   0  0  0  0  0  0  0  0  0  0  0  0
   -1.4613   -0.9298    0.0000 C   0  0  0  0  0  0  0  0  0  0  0  0
    1.1366    2.0701    0.0000 C   0  0  0  0  0  0  0  0  0  0  0  0
    3.7347    2.0701    0.0000 C   0  0  0  0  0  0  0  0  0  0  0  0
    1.1366   -0.9298    0.0000 C   0  0  0  0  0  0  0  0  0  0  0  0
    2.4357   -0.1799    0.0000 C   0  0  0  0  0  0  0  0  0  0  0  0
   -2.7603   -0.1799    0.0000 C   0  0  0  0  0  0  0  0  0  0  0  0
   -2.7603    1.3201    0.0000 C   0  0  0  0  0  0  0  0  0  0  0  0
   -0.1622   -3.1798    0.0000 C   0  0  0  0  0  0  0  0  0  0  0  0
    1.1366   -5.4297    0.0000 C   0  0  0  0  0  0  0  0  0  0  0  0
    2.4357   -4.6797    0.0000 C   0  0  0  0  0  0  0  0  0  0  0  0
    3.7347   -6.9297    0.0000 C   0  0  0  0  0  0  0  0  0  0  0  0
    2.4357   -7.6796    0.0000 C   0  0  0  0  0  0  0  0  0  0  0  0
    3.7347   -5.4297    0.0000 C   0  0  0  0  0  0  0  0  0  0  0  0
    5.0338   -7.6796    0.0000 C   0  0  0  0  0  0  0  0  0  0  0  0
  1 15  1  0  0  0  0
  2 15  1  0  0  0  0
  3 15  1  0  0  0  0
  4 20  2  0  0  0  0
  5 11  1  0  0  0  0
  5 19  2  0  0  0  0
  6 13  1  0  0  0  0
  6 20  1  0  0  0  0
  7 20  1  0  0  0  0
  7 21  1  0  0  0  0
  8 21  1  0  0  0  0
  8 24  2  0  0  0  0
  9 26  3  0  0  0  0
 10 11  1  0  0  0  0
 10 13  1  0  0  0  0
 10 16  2  0  0  0  0
 11 14  2  0  0  0  0
 12 14  1  0  0  0  0
 12 15  1  0  0  0  0
 12 17  2  0  0  0  0
 13 18  2  0  0  0  0
 16 17  1  0  0  0  0
 18 19  1  0  0  0  0
 21 22  2  0  0  0  0
 22 25  1  0  0  0  0
 23 24  1  0  0  0  0
 23 25  2  0  0  0  0
 23 26  1  0  0  0  0
M  END
> <Value>
5.899998417198648

> <Relation>
<

> <SourceURI>
mol:CHEMBL1999718

$$$$

Generated by Molecular Materials Informatics

 31 35  0  0  0  0  0  0  0  0999 V2000
   -5.7553   -7.7456    0.0000 Cl  0  0  0  0  0  0  0  0  0  0  0  0
   -4.9049   -0.9245    0.0000 O   0  0  0  0  0  0  0  0  0  0  0  0
   -1.9704    2.1262    0.0000 N   0  0  0  0  0  0  0  0  0  0  0  0
   -2.8520    0.9127    0.0000 N   0  0  0  0  0  0  0  0  0  0  0  0
   -2.4338   -1.7275    0.0000 N   0  0  0  0  0  0  0  0  0  0  0  0
    5.7273   -1.0920    0.0000 N   0  0  0  0  0  0  0  0  0  0  0  0
    3.5102   -2.0791    0.0000 N   0  0  0  0  0  0  0  0  0  0  0  0
    4.9773   -2.3911    0.0000 N   0  0  0  0  0  0  0  0  0  0  0  0
   -0.5438    0.1627    0.0000 C   0  0  0  0  0  0  0  0  0  0  0  0
   -0.5438    1.6627    0.0000 C   0  0  0  0  0  0  0  0  0  0  0  0
   -1.9704   -0.3009    0.0000 C   0  0  0  0  0  0  0  0  0  0  0  0
    2.0543    0.1627    0.0000 C   0  0  0  0  0  0  0  0  0  0  0  0
    0.7553   -0.5873    0.0000 C   0  0  0  0  0  0  0  0  0  0  0  0
    3.3533   -0.5873    0.0000 C   0  0  0  0  0  0  0  0  0  0  0  0
    0.7553    2.4127    0.0000 C   0  0  0  0  0  0  0  0  0  0  0  0
    2.0543    1.6627    0.0000 C   0  0  0  0  0  0  0  0  0  0  0  0
    4.7236    0.0227    0.0000 C   0  0  0  0  0  0  0  0  0  0  0  0
   -3.9011   -2.0393    0.0000 C   0  0  0  0  0  0  0  0  0  0  0  0
   -4.3647   -3.4660    0.0000 C   0  0  0  0  0  0  0  0  0  0  0  0
    7.2191   -0.9351    0.0000 C   0  0  0  0  0  0  0  0  0  0  0  0
    8.1007   -2.1487    0.0000 C   0  0  0  0  0  0  0  0  0  0  0  0
   -3.3609   -4.5805    0.0000 C   0  0  0  0  0  0  0  0  0  0  0  0
   -5.8318   -3.7778    0.0000 C   0  0  0  0  0  0  0  0  0  0  0  0
   -5.2917   -6.3191    0.0000 C   0  0  0  0  0  0  0  0  0  0  0  0
   -3.8246   -6.0073    0.0000 C   0  0  0  0  0  0  0  0  0  0  0  0
   -6.2955   -5.2044    0.0000 C   0  0  0  0  0  0  0  0  0  0  0  0
    9.5925   -1.9918    0.0000 C   0  0  0  0  0  0  0  0  0  0  0  0
    7.4907   -3.5191    0.0000 C   0  0  0  0  0  0  0  0  0  0  0  0
   10.4742   -3.2054    0.0000 C   0  0  0  0  0  0  0  0  0  0  0  0
    8.3724   -4.7325    0.0000 C   0  0  0  0  0  0  0  0  0  0  0  0
    9.8642   -4.5758    0.0000 C   0  0  0  0  0  0  0  0  0  0  0  0
  1 24  1  0  0  0  0
  2 18  2  0  0  0  0
  3  4  1  0  0  0  0
  3 10  1  0  0  0  0
  4 11  2  0  0  0  0
  5 11  1  0  0  0  0
  5 18  1  0  0  0  0
  6  8  1  0  0  0  0
  6 17  1  0  0  0  0
  6 20  1  0  0  0  0
  7  8  2  0  0  0  0
  7 14  1  0  0  0  0
  9 10  1  0  0  0  0
  9 11  1  0  0  0  0
  9 13  2  0  0  0  0
 10 15  2  0  0  0  0
 12 13  1  0  0  0  0
 12 14  1  0  0  0  0
 12 16  2  0  0  0  0
 14 17  2  0  0  0  0
 15 16  1  0  0  0  0
 18 19  1  0  0  0  0
 19 22  2  0  0  0  0
 19 23  1  0  0  0  0
 20 21  1  0  0  0  0
 21 27  2  0  0  0  0
 21 28  1  0  0  0  0
 22 25  1  0  0  0  0
 23 26  2  0  0  0  0
 24 25  2  0  0  0  0
 24 26  1  0  0  0  0
 27 29  1  0  0  0  0
 28 30  2  0  0  0  0
 29 31  2  0  0  0  0
 30 31  1  0  0  0  0
M  END
> <Value>
6.599997654072044

> <Relation>
=

> <SourceURI>
mol:CHEMBL1987073

$$$$

Generated by Molecular Materials Informatics

 22 25  0  0  0  0  0  0  0  0999 V2000
    4.6695   -2.1053    0.0000 Br  0  0  0  0  0  0  0  0  0  0  0  0
   -4.4085    4.5463    0.0000 O   0  0  0  0  0  0  0  0  0  0  0  0
   -5.3441   -1.3553    0.0000 N   0  0  0  0  0  0  0  0  0  0  0  0
   -0.6541    0.6081    0.0000 N   0  0  0  0  0  0  0  0  0  0  0  0
    2.0715   -2.1053    0.0000 N   0  0  0  0  0  0  0  0  0  0  0  0
    2.0715    0.8947    0.0000 N   0  0  0  0  0  0  0  0  0  0  0  0
   -3.0358   -0.6053    0.0000 C   0  0  0  0  0  0  0  0  0  0  0  0
   -3.9176    0.6081    0.0000 C   0  0  0  0  0  0  0  0  0  0  0  0
   -1.5358   -0.6053    0.0000 C   0  0  0  0  0  0  0  0  0  0  0  0
   -5.3441    0.1447    0.0000 C   0  0  0  0  0  0  0  0  0  0  0  0
    0.7724   -1.3553    0.0000 C   0  0  0  0  0  0  0  0  0  0  0  0
    0.7724    0.1447    0.0000 C   0  0  0  0  0  0  0  0  0  0  0  0
   -3.9176   -1.8188    0.0000 C   0  0  0  0  0  0  0  0  0  0  0  0
   -0.6541   -1.8188    0.0000 C   0  0  0  0  0  0  0  0  0  0  0  0
   -3.6056    2.0754    0.0000 C   0  0  0  0  0  0  0  0  0  0  0  0
   -6.4589    1.1483    0.0000 C   0  0  0  0  0  0  0  0  0  0  0  0
   -4.7203    3.0790    0.0000 C   0  0  0  0  0  0  0  0  0  0  0  0
    3.3704   -1.3553    0.0000 C   0  0  0  0  0  0  0  0  0  0  0  0
   -6.1470    2.6156    0.0000 C   0  0  0  0  0  0  0  0  0  0  0  0
    3.3704    0.1447    0.0000 C   0  0  0  0  0  0  0  0  0  0  0  0
   -6.5576   -2.2370    0.0000 C   0  0  0  0  0  0  0  0  0  0  0  0
   -5.5232    5.5500    0.0000 C   0  0  0  0  0  0  0  0  0  0  0  0
  1 18  1  0  0  0  0
  2 17  1  0  0  0  0
  2 22  1  0  0  0  0
  3 10  1  0  0  0  0
  3 13  1  0  0  0  0
  3 21  1  0  0  0  0
  4  9  1  0  0  0  0
  4 12  1  0  0  0  0
  5 11  2  0  0  0  0
  5 18  1  0  0  0  0
  6 12  2  0  0  0  0
  6 20  1  0  0  0  0
  7  8  1  0  0  0  0
  7  9  1  0  0  0  0
  7 13  2  0  0  0  0
  8 10  1  0  0  0  0
  8 15  2  0  0  0  0
  9 14  2  0  0  0  0
 10 16  2  0  0  0  0
 11 12  1  0  0  0  0
 11 14  1  0  0  0  0
 15 17  1  0  0  0  0
 16 19  1  0  0  0  0
 17 19  2  0  0  0  0
 18 20  2  0  0  0  0
M  END
> <Value>
5.300000202445418

> <Relation>
<

> <SourceURI>
mol:CHEMBL2005478

$$$$

Generated by Molecular Materials Informatics

 31 35  0  0  0  0  0  0  0  0999 V2000
   -1.5550    1.8788    0.0000 S   0  0  0  0  0  0  0  0  0  0  0  0
    1.5077   -6.4606    0.0000 S   0  0  0  0  0  0  0  0  0  0  0  0
    4.6216    1.7390    0.0000 O   0  0  0  0  0  0  0  0  0  0  0  0
    0.0405   -6.1488    0.0000 O   0  0  0  0  0  0  0  0  0  0  0  0
    2.9747   -6.7726    0.0000 O   0  0  0  0  0  0  0  0  0  0  0  0
    3.1658    3.9808    0.0000 N   0  0  0  0  0  0  0  0  0  0  0  0
   -2.7686    3.9808    0.0000 N   0  0  0  0  0  0  0  0  0  0  0  0
    2.7551   -0.5920    0.0000 N   0  0  0  0  0  0  0  0  0  0  0  0
    1.1957   -7.9278    0.0000 N   0  0  0  0  0  0  0  0  0  0  0  0
    1.9986  -10.3987    0.0000 N   0  0  0  0  0  0  0  0  0  0  0  0
    0.9486    2.9935    0.0000 C   0  0  0  0  0  0  0  0  0  0  0  0
   -0.5513    2.9935    0.0000 C   0  0  0  0  0  0  0  0  0  0  0  0
    1.9522    1.8788    0.0000 C   0  0  0  0  0  0  0  0  0  0  0  0
    1.6986    4.2926    0.0000 C   0  0  0  0  0  0  0  0  0  0  0  0
   -1.3013    4.2926    0.0000 C   0  0  0  0  0  0  0  0  0  0  0  0
    3.3226    2.4890    0.0000 C   0  0  0  0  0  0  0  0  0  0  0  0
    0.9486    5.5916    0.0000 C   0  0  0  0  0  0  0  0  0  0  0  0
   -0.5513    5.5916    0.0000 C   0  0  0  0  0  0  0  0  0  0  0  0
    1.6404    0.4118    0.0000 C   0  0  0  0  0  0  0  0  0  0  0  0
   -2.9253    2.4890    0.0000 C   0  0  0  0  0  0  0  0  0  0  0  0
    1.8195   -4.9935    0.0000 C   0  0  0  0  0  0  0  0  0  0  0  0
    2.4433   -2.0591    0.0000 C   0  0  0  0  0  0  0  0  0  0  0  0
    0.7048   -3.9897    0.0000 C   0  0  0  0  0  0  0  0  0  0  0  0
    3.2460   -4.5299    0.0000 C   0  0  0  0  0  0  0  0  0  0  0  0
    1.0166   -2.5227    0.0000 C   0  0  0  0  0  0  0  0  0  0  0  0
    3.5580   -3.0629    0.0000 C   0  0  0  0  0  0  0  0  0  0  0  0
    2.3104   -8.9314    0.0000 C   0  0  0  0  0  0  0  0  0  0  0  0
    3.7371   -8.4680    0.0000 C   0  0  0  0  0  0  0  0  0  0  0  0
    3.1133  -11.4024    0.0000 C   0  0  0  0  0  0  0  0  0  0  0  0
    4.8518   -9.4716    0.0000 C   0  0  0  0  0  0  0  0  0  0  0  0
    4.5398  -10.9388    0.0000 C   0  0  0  0  0  0  0  0  0  0  0  0
  1 12  1  0  0  0  0
  1 20  1  0  0  0  0
  2  4  2  0  0  0  0
  2  5  2  0  0  0  0
  2  9  1  0  0  0  0
  2 21  1  0  0  0  0
  3 16  2  0  0  0  0
  6 14  1  0  0  0  0
  6 16  1  0  0  0  0
  7 15  1  0  0  0  0
  7 20  2  0  0  0  0
 19  8  1  0  0  0  0
  8 22  1  0  0  0  0
  9 27  1  0  0  0  0
 10 27  1  0  0  0  0
 10 29  2  0  0  0  0
 11 12  2  0  0  0  0
 11 13  1  0  0  0  0
 11 14  1  0  0  0  0
 12 15  1  0  0  0  0
 13 16  1  0  0  0  0
 13 19  2  0  0  0  0
 14 17  2  0  0  0  0
 15 18  2  0  0  0  0
 17 18  1  0  0  0  0
 21 23  2  0  0  0  0
 21 24  1  0  0  0  0
 22 25  2  0  0  0  0
 22 26  1  0  0  0  0
 23 25  1  0  0  0  0
 24 26  2  0  0  0  0
 27 28  2  0  0  0  0
 28 30  1  0  0  0  0
 29 31  1  0  0  0  0
 30 31  2  0  0  0  0
M  END
> <Value>
7.100015437450609

> <Relation>
=

> <SourceURI>
mol:CHEMBL1973540

$$$$

Generated by Molecular Materials Informatics

 30 33  0  0  0  0  0  0  0  0999 V2000
    4.9039   -1.8187    0.0000 Cl  0  0  0  0  0  0  0  0  0  0  0  0
    3.6048   -5.5688    0.0000 O   0  0  0  0  0  0  0  0  0  0  0  0
   -1.5914   -5.5688    0.0000 O   0  0  0  0  0  0  0  0  0  0  0  0
   -1.5914   -1.0687    0.0000 N   0  0  0  0  0  0  0  0  0  0  0  0
   -0.2923    1.1813    0.0000 N   0  0  0  0  0  0  0  0  0  0  0  0
   -0.2923   -3.3187    0.0000 N   0  0  0  0  0  0  0  0  0  0  0  0
   -2.8903    1.1813    0.0000 N   0  0  0  0  0  0  0  0  0  0  0  0
    1.0068   -1.0687    0.0000 C   0  0  0  0  0  0  0  0  0  0  0  0
   -0.2923   -1.8187    0.0000 C   0  0  0  0  0  0  0  0  0  0  0  0
    1.0068    0.4312    0.0000 C   0  0  0  0  0  0  0  0  0  0  0  0
   -1.5914    0.4312    0.0000 C   0  0  0  0  0  0  0  0  0  0  0  0
    2.3057   -1.8187    0.0000 C   0  0  0  0  0  0  0  0  0  0  0  0
    1.0068   -5.5688    0.0000 C   0  0  0  0  0  0  0  0  0  0  0  0
    2.3057    1.1813    0.0000 C   0  0  0  0  0  0  0  0  0  0  0  0
    3.6048   -1.0687    0.0000 C   0  0  0  0  0  0  0  0  0  0  0  0
    1.0068   -4.0687    0.0000 C   0  0  0  0  0  0  0  0  0  0  0  0
    2.3057   -6.3187    0.0000 C   0  0  0  0  0  0  0  0  0  0  0  0
   -0.2923   -6.3187    0.0000 C   0  0  0  0  0  0  0  0  0  0  0  0
    3.6048    0.4312    0.0000 C   0  0  0  0  0  0  0  0  0  0  0  0
   -2.8903    2.6812    0.0000 C   0  0  0  0  0  0  0  0  0  0  0  0
    2.3057   -7.8187    0.0000 C   0  0  0  0  0  0  0  0  0  0  0  0
   -0.2923   -7.8187    0.0000 C   0  0  0  0  0  0  0  0  0  0  0  0
    1.0068   -8.5688    0.0000 C   0  0  0  0  0  0  0  0  0  0  0  0
   -4.1894    3.4312    0.0000 C   0  0  0  0  0  0  0  0  0  0  0  0
   -1.5914    3.4312    0.0000 C   0  0  0  0  0  0  0  0  0  0  0  0
   -4.1894    4.9312    0.0000 C   0  0  0  0  0  0  0  0  0  0  0  0
   -1.5914    4.9312    0.0000 C   0  0  0  0  0  0  0  0  0  0  0  0
   -2.8903    5.6812    0.0000 C   0  0  0  0  0  0  0  0  0  0  0  0
    4.9039   -6.3187    0.0000 C   0  0  0  0  0  0  0  0  0  0  0  0
   -2.8903   -6.3187    0.0000 C   0  0  0  0  0  0  0  0  0  0  0  0
  1 15  1  0  0  0  0
  2 17  1  0  0  0  0
  2 29  1  0  0  0  0
  3 18  1  0  0  0  0
  3 30  1  0  0  0  0
  4  9  2  0  0  0  0
  4 11  1  0  0  0  0
  5 10  1  0  0  0  0
  5 11  2  0  0  0  0
  6  9  1  0  0  0  0
  6 16  1  0  0  0  0
  7 11  1  0  0  0  0
  7 20  1  0  0  0  0
  8  9  1  0  0  0  0
  8 10  1  0  0  0  0
  8 12  2  0  0  0  0
 10 14  2  0  0  0  0
 12 15  1  0  0  0  0
 13 16  1  0  0  0  0
 13 17  1  0  0  0  0
 13 18  2  0  0  0  0
 14 19  1  0  0  0  0
 15 19  2  0  0  0  0
 17 21  2  0  0  0  0
 18 22  1  0  0  0  0
 20 24  1  0  0  0  0
 20 25  1  0  0  0  0
 21 23  1  0  0  0  0
 22 23  2  0  0  0  0
 24 26  1  0  0  0  0
 25 27  1  0  0  0  0
 26 28  1  0  0  0  0
 27 28  1  0  0  0  0
M  END
> <Value>
5.40000018605658

> <Relation>
=

> <SourceURI>
mol:CHEMBL1996646

$$$$

Generated by Molecular Materials Informatics

 30 33  0  0  0  0  0  0  0  0999 V2000
   -6.2441    3.3012    0.0000 Cl  0  0  0  0  0  0  0  0  0  0  0  0
    5.5702    4.7743    0.0000 O   0  0  0  0  0  0  0  0  0  0  0  0
   -1.8425    2.3657    0.0000 N   0  0  0  0  0  0  0  0  0  0  0  0
   -2.3827   -2.6026    0.0000 N   0  0  0  0  0  0  0  0  0  0  0  0
    0.3430   -2.8892    0.0000 N   0  0  0  0  0  0  0  0  0  0  0  0
   -3.7732    4.1041    0.0000 N   0  0  0  0  0  0  0  0  0  0  0  0
   -1.3023    4.9070    0.0000 N   0  0  0  0  0  0  0  0  0  0  0  0
    3.6395    6.5126    0.0000 N   0  0  0  0  0  0  0  0  0  0  0  0
    7.5777    7.0036    0.0000 N   0  0  0  0  0  0  0  0  0  0  0  0
   -2.3827   -0.1757    0.0000 C   0  0  0  0  0  0  0  0  0  0  0  0
   -0.9561   -0.6392    0.0000 C   0  0  0  0  0  0  0  0  0  0  0  0
   -2.8463    1.2510    0.0000 C   0  0  0  0  0  0  0  0  0  0  0  0
   -0.9561   -2.1392    0.0000 C   0  0  0  0  0  0  0  0  0  0  0  0
   -3.2643   -1.3892    0.0000 C   0  0  0  0  0  0  0  0  0  0  0  0
   -2.3061    3.7923    0.0000 C   0  0  0  0  0  0  0  0  0  0  0  0
   -4.3134    1.5628    0.0000 C   0  0  0  0  0  0  0  0  0  0  0  0
    0.3430    0.1108    0.0000 C   0  0  0  0  0  0  0  0  0  0  0  0
   -4.7770    2.9894    0.0000 C   0  0  0  0  0  0  0  0  0  0  0  0
    0.1648    4.5950    0.0000 C   0  0  0  0  0  0  0  0  0  0  0  0
    1.6419   -0.6392    0.0000 C   0  0  0  0  0  0  0  0  0  0  0  0
    1.6419   -2.1392    0.0000 C   0  0  0  0  0  0  0  0  0  0  0  0
    1.1686    5.7097    0.0000 C   0  0  0  0  0  0  0  0  0  0  0  0
    2.6357    5.3979    0.0000 C   0  0  0  0  0  0  0  0  0  0  0  0
    0.6284    3.1685    0.0000 C   0  0  0  0  0  0  0  0  0  0  0  0
    3.0993    3.9714    0.0000 C   0  0  0  0  0  0  0  0  0  0  0  0
    2.0955    2.8566    0.0000 C   0  0  0  0  0  0  0  0  0  0  0  0
    5.1066    6.2008    0.0000 C   0  0  0  0  0  0  0  0  0  0  0  0
    6.1104    7.3156    0.0000 C   0  0  0  0  0  0  0  0  0  0  0  0
    8.5813    8.1183    0.0000 C   0  0  0  0  0  0  0  0  0  0  0  0
    8.0412    5.5770    0.0000 C   0  0  0  0  0  0  0  0  0  0  0  0
  1 18  1  0  0  0  0
  2 27  2  0  0  0  0
  3 12  2  0  0  0  0
  3 15  1  0  0  0  0
  4 13  1  0  0  0  0
  4 14  1  0  0  0  0
  5 13  2  0  0  0  0
  5 21  1  0  0  0  0
  6 15  2  0  0  0  0
  6 18  1  0  0  0  0
  7 15  1  0  0  0  0
  7 19  1  0  0  0  0
  8 23  1  0  0  0  0
  8 27  1  0  0  0  0
  9 28  1  0  0  0  0
  9 29  1  0  0  0  0
  9 30  1  0  0  0  0
 10 11  1  0  0  0  0
 10 12  1  0  0  0  0
 10 14  2  0  0  0  0
 11 13  1  0  0  0  0
 11 17  2  0  0  0  0
 12 16  1  0  0  0  0
 16 18  2  0  0  0  0
 17 20  1  0  0  0  0
 19 22  1  0  0  0  0
 19 24  1  0  0  0  0
 20 21  2  0  0  0  0
 22 23  1  0  0  0  0
 23 25  1  0  0  0  0
 24 26  1  0  0  0  0
 25 26  1  0  0  0  0
 27 28  1  0  0  0  0
M  END
> <Value>
6.599997654072044

> <Relation>
=

> <SourceURI>
mol:CHEMBL1995712

$$$$

Generated by Molecular Materials Informatics

 36 39  0  0  0  0  0  0  0  0999 V2000
    0.5738   -5.2399    0.0000 O   0  0  0  0  0  0  0  0  0  0  0  0
   -7.9860   -0.2722    0.0000 O   0  0  0  0  0  0  0  0  0  0  0  0
   -3.3945   -3.1298    0.0000 N   0  0  0  0  0  0  0  0  0  0  0  0
   -4.3981   -4.2445    0.0000 N   0  0  0  0  0  0  0  0  0  0  0  0
   -0.7251   -2.9899    0.0000 N   0  0  0  0  0  0  0  0  0  0  0  0
    1.8729   -2.9899    0.0000 N   0  0  0  0  0  0  0  0  0  0  0  0
   -7.1831    2.1989    0.0000 N   0  0  0  0  0  0  0  0  0  0  0  0
  -10.3482    4.5930    0.0000 N   0  0  0  0  0  0  0  0  0  0  0  0
   -2.0242   -3.7399    0.0000 C   0  0  0  0  0  0  0  0  0  0  0  0
   -3.6481   -5.5435    0.0000 C   0  0  0  0  0  0  0  0  0  0  0  0
   -3.7063   -1.6627    0.0000 C   0  0  0  0  0  0  0  0  0  0  0  0
   -2.1809   -5.2317    0.0000 C   0  0  0  0  0  0  0  0  0  0  0  0
   -4.2583   -6.9139    0.0000 C   0  0  0  0  0  0  0  0  0  0  0  0
   -5.1328   -1.1991    0.0000 C   0  0  0  0  0  0  0  0  0  0  0  0
   -5.4448    0.2680    0.0000 C   0  0  0  0  0  0  0  0  0  0  0  0
   -2.5916   -0.6589    0.0000 C   0  0  0  0  0  0  0  0  0  0  0  0
    0.5738   -3.7399    0.0000 C   0  0  0  0  0  0  0  0  0  0  0  0
    1.8729   -1.4900    0.0000 C   0  0  0  0  0  0  0  0  0  0  0  0
    3.1719   -0.7400    0.0000 C   0  0  0  0  0  0  0  0  0  0  0  0
   -6.8713    0.7316    0.0000 C   0  0  0  0  0  0  0  0  0  0  0  0
   -4.3301    1.2718    0.0000 C   0  0  0  0  0  0  0  0  0  0  0  0
    3.1719    0.7600    0.0000 C   0  0  0  0  0  0  0  0  0  0  0  0
   -2.9034    0.8082    0.0000 C   0  0  0  0  0  0  0  0  0  0  0  0
   -4.8683   -8.2842    0.0000 C   0  0  0  0  0  0  0  0  0  0  0  0
   -2.8880   -7.5239    0.0000 C   0  0  0  0  0  0  0  0  0  0  0  0
   -5.6286   -6.3037    0.0000 C   0  0  0  0  0  0  0  0  0  0  0  0
    0.5738   -0.7400    0.0000 C   0  0  0  0  0  0  0  0  0  0  0  0
    4.4708   -1.4900    0.0000 C   0  0  0  0  0  0  0  0  0  0  0  0
    1.8729    1.5100    0.0000 C   0  0  0  0  0  0  0  0  0  0  0  0
    4.4708    1.5100    0.0000 C   0  0  0  0  0  0  0  0  0  0  0  0
    0.5738    0.7600    0.0000 C   0  0  0  0  0  0  0  0  0  0  0  0
    5.7699   -0.7400    0.0000 C   0  0  0  0  0  0  0  0  0  0  0  0
    5.7699    0.7600    0.0000 C   0  0  0  0  0  0  0  0  0  0  0  0
   -8.6097    2.6623    0.0000 C   0  0  0  0  0  0  0  0  0  0  0  0
   -6.0684    3.2025    0.0000 C   0  0  0  0  0  0  0  0  0  0  0  0
   -8.9217    4.1296    0.0000 C   0  0  0  0  0  0  0  0  0  0  0  0
  1 17  2  0  0  0  0
  2 20  2  0  0  0  0
  3  4  1  0  0  0  0
  3  9  1  0  0  0  0
  3 11  1  0  0  0  0
  4 10  2  0  0  0  0
  5  9  1  0  0  0  0
  5 17  1  0  0  0  0
  6 17  1  0  0  0  0
  6 18  1  0  0  0  0
  7 20  1  0  0  0  0
  7 34  1  0  0  0  0
  7 35  1  0  0  0  0
  8 36  1  0  0  0  0
  9 12  2  0  0  0  0
 10 12  1  0  0  0  0
 10 13  1  0  0  0  0
 11 14  2  0  0  0  0
 11 16  1  0  0  0  0
 13 24  1  0  0  0  0
 13 25  1  0  0  0  0
 13 26  1  0  0  0  0
 14 15  1  0  0  0  0
 15 20  1  0  0  0  0
 15 21  2  0  0  0  0
 16 23  2  0  0  0  0
 18 19  1  0  0  0  0
 18 27  2  0  0  0  0
 19 22  1  0  0  0  0
 19 28  2  0  0  0  0
 21 23  1  0  0  0  0
 22 29  1  0  0  0  0
 22 30  2  0  0  0  0
 27 31  1  0  0  0  0
 28 32  1  0  0  0  0
 29 31  2  0  0  0  0
 30 33  1  0  0  0  0
 32 33  2  0  0  0  0
 34 36  1  0  0  0  0
M  END
> <Value>
5.300000202445418

> <Relation>
<

> <SourceURI>
mol:CHEMBL1979773

$$$$

Generated by Molecular Materials Informatics

 17 19  0  0  0  0  0  0  0  0999 V2000
    9.1327   -0.6850    0.0000 I   0  0  0  0  0  0  0  0  0  0  0  0
    4.8819   -3.3452    0.0000 O   0  0  0  0  0  0  0  0  0  0  0  0
    3.4812    1.2923    0.0000 N   0  0  0  0  0  0  0  0  0  0  0  0
    2.7312   -1.9937    0.0000 N   0  0  0  0  0  0  0  0  0  0  0  0
    5.9321    1.6618    0.0000 N   0  0  0  0  0  0  0  0  0  0  0  0
    7.3656    1.2196    0.0000 N   0  0  0  0  0  0  0  0  0  0  0  0
    5.1663   -0.8210    0.0000 C   0  0  0  0  0  0  0  0  0  0  0  0
    4.8327    0.6414    0.0000 C   0  0  0  0  0  0  0  0  0  0  0  0
    4.2312   -1.9937    0.0000 C   0  0  0  0  0  0  0  0  0  0  0  0
    2.1297    0.6414    0.0000 C   0  0  0  0  0  0  0  0  0  0  0  0
    1.7959   -0.8210    0.0000 C   0  0  0  0  0  0  0  0  0  0  0  0
    6.5998   -1.2632    0.0000 C   0  0  0  0  0  0  0  0  0  0  0  0
    7.6994   -0.2428    0.0000 C   0  0  0  0  0  0  0  0  0  0  0  0
    1.0301    1.6618    0.0000 C   0  0  0  0  0  0  0  0  0  0  0  0
    0.3624   -1.2632    0.0000 C   0  0  0  0  0  0  0  0  0  0  0  0
   -0.4032    1.2196    0.0000 C   0  0  0  0  0  0  0  0  0  0  0  0
   -0.7370   -0.2428    0.0000 C   0  0  0  0  0  0  0  0  0  0  0  0
  1 13  1  0  0  0  0
  2  9  2  0  0  0  0
  3  8  1  0  0  0  0
  3 10  1  0  0  0  0
  4  9  1  0  0  0  0
  4 11  1  0  0  0  0
  5  6  2  0  0  0  0
  5  8  1  0  0  0  0
  6 13  1  0  0  0  0
  7  8  2  0  0  0  0
  7  9  1  0  0  0  0
  7 12  1  0  0  0  0
 10 11  1  0  0  0  0
 10 14  2  0  0  0  0
 11 15  2  0  0  0  0
 12 13  2  0  0  0  0
 14 16  1  0  0  0  0
 15 17  1  0  0  0  0
 16 17  2  0  0  0  0
M  END
> <Value>
5.899998417198648

> <Relation>
<

> <SourceURI>
mol:CHEMBL1977346

$$$$

Generated by Molecular Materials Informatics

 31 35  0  0  0  0  0  0  0  0999 V2000
    2.1363    5.7191    0.0000 S   0  0  0  0  0  0  0  0  0  0  0  0
    1.6016   -2.1318    0.0000 S   0  0  0  0  0  0  0  0  0  0  0  0
   11.3363   -0.9181    0.0000 F   0  0  0  0  0  0  0  0  0  0  0  0
    2.2931    7.2108    0.0000 O   0  0  0  0  0  0  0  0  0  0  0  0
    1.9794    4.2273    0.0000 O   0  0  0  0  0  0  0  0  0  0  0  0
    3.6281    5.5622    0.0000 N   0  0  0  0  0  0  0  0  0  0  0  0
    3.0281   -0.1681    0.0000 N   0  0  0  0  0  0  0  0  0  0  0  0
    6.0021    6.0670    0.0000 N   0  0  0  0  0  0  0  0  0  0  0  0
    4.4547   -2.1318    0.0000 N   0  0  0  0  0  0  0  0  0  0  0  0
    4.3200    8.1442    0.0000 N   0  0  0  0  0  0  0  0  0  0  0  0
    4.3781    4.2633    0.0000 C   0  0  0  0  0  0  0  0  0  0  0  0
    4.4547    0.2953    0.0000 C   0  0  0  0  0  0  0  0  0  0  0  0
    4.9181    1.7219    0.0000 C   0  0  0  0  0  0  0  0  0  0  0  0
    5.8452    4.5751    0.0000 C   0  0  0  0  0  0  0  0  0  0  0  0
    5.3363   -0.9181    0.0000 C   0  0  0  0  0  0  0  0  0  0  0  0
    4.6318    6.6770    0.0000 C   0  0  0  0  0  0  0  0  0  0  0  0
    3.9145    2.8366    0.0000 C   0  0  0  0  0  0  0  0  0  0  0  0
    3.0281   -1.6681    0.0000 C   0  0  0  0  0  0  0  0  0  0  0  0
    6.3854    2.0339    0.0000 C   0  0  0  0  0  0  0  0  0  0  0  0
    6.8491    3.4604    0.0000 C   0  0  0  0  0  0  0  0  0  0  0  0
    6.8363   -0.9181    0.0000 C   0  0  0  0  0  0  0  0  0  0  0  0
    1.6016    0.2953    0.0000 C   0  0  0  0  0  0  0  0  0  0  0  0
    0.6445    5.8759    0.0000 C   0  0  0  0  0  0  0  0  0  0  0  0
    0.7198   -0.9181    0.0000 C   0  0  0  0  0  0  0  0  0  0  0  0
    7.5863    0.3810    0.0000 C   0  0  0  0  0  0  0  0  0  0  0  0
    7.5863   -2.2172    0.0000 C   0  0  0  0  0  0  0  0  0  0  0  0
   -0.2371    4.6624    0.0000 C   0  0  0  0  0  0  0  0  0  0  0  0
    0.0343    7.2462    0.0000 C   0  0  0  0  0  0  0  0  0  0  0  0
    9.0863    0.3810    0.0000 C   0  0  0  0  0  0  0  0  0  0  0  0
    9.0863   -2.2172    0.0000 C   0  0  0  0  0  0  0  0  0  0  0  0
    9.8363   -0.9181    0.0000 C   0  0  0  0  0  0  0  0  0  0  0  0
  1  4  2  0  0  0  0
  1  5  2  0  0  0  0
  1  6  1  0  0  0  0
  1 23  1  0  0  0  0
  2 18  1  0  0  0  0
  2 24  1  0  0  0  0
  3 31  1  0  0  0  0
  6 11  1  0  0  0  0
  6 16  1  0  0  0  0
  7 12  1  0  0  0  0
  7 18  1  0  0  0  0
  7 22  1  0  0  0  0
  8 14  1  0  0  0  0
  8 16  2  0  0  0  0
  9 15  1  0  0  0  0
  9 18  2  0  0  0  0
 10 16  1  0  0  0  0
 11 14  1  0  0  0  0
 11 17  2  0  0  0  0
 12 13  1  0  0  0  0
 12 15  2  0  0  0  0
 13 17  1  0  0  0  0
 13 19  2  0  0  0  0
 14 20  2  0  0  0  0
 15 21  1  0  0  0  0
 19 20  1  0  0  0  0
 21 25  2  0  0  0  0
 21 26  1  0  0  0  0
 22 24  2  0  0  0  0
 23 27  1  0  0  0  0
 23 28  1  0  0  0  0
 25 29  1  0  0  0  0
 26 30  2  0  0  0  0
 29 31  2  0  0  0  0
 30 31  1  0  0  0  0
M  END
> <Value>
5.899998417198648

> <Relation>
<

> <SourceURI>
mol:CHEMBL2003657

$$$$

Generated by Molecular Materials Informatics

 29 32  0  0  0  0  0  0  0  0999 V2000
    8.1838    1.4062    0.0000 F   0  0  0  0  0  0  0  0  0  0  0  0
    6.8849    0.6563    0.0000 O   0  0  0  0  0  0  0  0  0  0  0  0
   -3.5071    0.6563    0.0000 N   0  0  0  0  0  0  0  0  0  0  0  0
   -3.5071    3.6562    0.0000 N   0  0  0  0  0  0  0  0  0  0  0  0
   -0.9092   -0.8437    0.0000 N   0  0  0  0  0  0  0  0  0  0  0  0
    5.5859   -1.5937    0.0000 N   0  0  0  0  0  0  0  0  0  0  0  0
    8.1838   -1.5937    0.0000 N   0  0  0  0  0  0  0  0  0  0  0  0
    0.3898    1.4062    0.0000 C   0  0  0  0  0  0  0  0  0  0  0  0
   -2.2081    1.4062    0.0000 C   0  0  0  0  0  0  0  0  0  0  0  0
   -0.9092    0.6563    0.0000 C   0  0  0  0  0  0  0  0  0  0  0  0
   -2.2081    2.9062    0.0000 C   0  0  0  0  0  0  0  0  0  0  0  0
    1.6889    0.6563    0.0000 C   0  0  0  0  0  0  0  0  0  0  0  0
    0.3898    2.9062    0.0000 C   0  0  0  0  0  0  0  0  0  0  0  0
   -0.9092    3.6562    0.0000 C   0  0  0  0  0  0  0  0  0  0  0  0
    2.9879    1.4062    0.0000 C   0  0  0  0  0  0  0  0  0  0  0  0
    1.6889   -0.8437    0.0000 C   0  0  0  0  0  0  0  0  0  0  0  0
    4.2868   -0.8437    0.0000 C   0  0  0  0  0  0  0  0  0  0  0  0
    4.2868    0.6563    0.0000 C   0  0  0  0  0  0  0  0  0  0  0  0
    2.9879   -1.5937    0.0000 C   0  0  0  0  0  0  0  0  0  0  0  0
    9.4828   -0.8437    0.0000 C   0  0  0  0  0  0  0  0  0  0  0  0
   -4.8062    1.4062    0.0000 C   0  0  0  0  0  0  0  0  0  0  0  0
   -4.8062    2.9062    0.0000 C   0  0  0  0  0  0  0  0  0  0  0  0
    6.8849   -0.8437    0.0000 C   0  0  0  0  0  0  0  0  0  0  0  0
    9.4828    0.6563    0.0000 C   0  0  0  0  0  0  0  0  0  0  0  0
   10.7819   -1.5937    0.0000 C   0  0  0  0  0  0  0  0  0  0  0  0
   12.0809   -0.8437    0.0000 C   0  0  0  0  0  0  0  0  0  0  0  0
   10.7819    1.4062    0.0000 C   0  0  0  0  0  0  0  0  0  0  0  0
   12.0809    0.6563    0.0000 C   0  0  0  0  0  0  0  0  0  0  0  0
   13.3798   -1.5937    0.0000 C   0  0  0  0  0  0  0  0  0  0  0  0
  1 24  1  0  0  0  0
  2 23  2  0  0  0  0
  3  9  1  0  0  0  0
  3 21  2  0  0  0  0
  4 11  1  0  0  0  0
  4 22  2  0  0  0  0
  5 10  1  0  0  0  0
  6 17  1  0  0  0  0
  6 23  1  0  0  0  0
  7 20  1  0  0  0  0
  7 23  1  0  0  0  0
  8 10  1  0  0  0  0
  8 12  1  0  0  0  0
  8 13  2  0  0  0  0
  9 10  2  0  0  0  0
  9 11  1  0  0  0  0
 11 14  2  0  0  0  0
 12 15  2  0  0  0  0
 12 16  1  0  0  0  0
 13 14  1  0  0  0  0
 15 18  1  0  0  0  0
 16 19  2  0  0  0  0
 17 18  2  0  0  0  0
 17 19  1  0  0  0  0
 20 24  1  0  0  0  0
 20 25  2  0  0  0  0
 21 22  1  0  0  0  0
 24 27  2  0  0  0  0
 25 26  1  0  0  0  0
 26 28  2  0  0  0  0
 26 29  1  0  0  0  0
 27 28  1  0  0  0  0
M  END
> <Value>
5.899998417198648

> <Relation>
<

> <SourceURI>
mol:CHEMBL1971649

$$$$

Generated by Molecular Materials Informatics

 34 37  0  0  0  0  0  0  0  0999 V2000
   -2.7965    2.6116    0.0000 O   0  0  0  0  0  0  0  0  0  0  0  0
   -4.5905   -7.5729    0.0000 O   0  0  0  0  0  0  0  0  0  0  0  0
    4.6709    3.0874    0.0000 O   0  0  0  0  0  0  0  0  0  0  0  0
   -7.5821   -7.3487    0.0000 O   0  0  0  0  0  0  0  0  0  0  0  0
   -0.3989   -1.5979    0.0000 N   0  0  0  0  0  0  0  0  0  0  0  0
   -0.3989    1.7727    0.0000 N   0  0  0  0  0  0  0  0  0  0  0  0
    5.9699    0.8374    0.0000 N   0  0  0  0  0  0  0  0  0  0  0  0
   11.1660    0.8374    0.0000 N   0  0  0  0  0  0  0  0  0  0  0  0
   -1.8614   -1.2640    0.0000 C   0  0  0  0  0  0  0  0  0  0  0  0
   -2.5121    0.0874    0.0000 C   0  0  0  0  0  0  0  0  0  0  0  0
    0.7739   -0.6626    0.0000 C   0  0  0  0  0  0  0  0  0  0  0  0
    0.7739    0.8374    0.0000 C   0  0  0  0  0  0  0  0  0  0  0  0
   -1.8614    1.4389    0.0000 C   0  0  0  0  0  0  0  0  0  0  0  0
   -4.2021   -2.3913    0.0000 C   0  0  0  0  0  0  0  0  0  0  0  0
   -2.7063   -2.5033    0.0000 C   0  0  0  0  0  0  0  0  0  0  0  0
   -5.0470   -3.6306    0.0000 C   0  0  0  0  0  0  0  0  0  0  0  0
   -4.0079    0.1996    0.0000 C   0  0  0  0  0  0  0  0  0  0  0  0
    2.0728    1.5874    0.0000 C   0  0  0  0  0  0  0  0  0  0  0  0
    3.3719    0.8374    0.0000 C   0  0  0  0  0  0  0  0  0  0  0  0
   -4.8530   -1.0399    0.0000 C   0  0  0  0  0  0  0  0  0  0  0  0
    2.0728   -1.4126    0.0000 C   0  0  0  0  0  0  0  0  0  0  0  0
    3.3719   -0.6626    0.0000 C   0  0  0  0  0  0  0  0  0  0  0  0
   -4.3963   -4.9820    0.0000 C   0  0  0  0  0  0  0  0  0  0  0  0
   -5.2412   -6.2215    0.0000 C   0  0  0  0  0  0  0  0  0  0  0  0
   -6.5428   -3.5186    0.0000 C   0  0  0  0  0  0  0  0  0  0  0  0
    4.6709    1.5874    0.0000 C   0  0  0  0  0  0  0  0  0  0  0  0
   -6.7370   -6.1093    0.0000 C   0  0  0  0  0  0  0  0  0  0  0  0
   -7.3879   -4.7578    0.0000 C   0  0  0  0  0  0  0  0  0  0  0  0
    7.2689    1.5874    0.0000 C   0  0  0  0  0  0  0  0  0  0  0  0
   -5.4354   -8.8122    0.0000 C   0  0  0  0  0  0  0  0  0  0  0  0
    8.5680    0.8374    0.0000 C   0  0  0  0  0  0  0  0  0  0  0  0
    9.8671    1.5874    0.0000 C   0  0  0  0  0  0  0  0  0  0  0  0
   12.4651    1.5874    0.0000 C   0  0  0  0  0  0  0  0  0  0  0  0
   11.1660   -0.6626    0.0000 C   0  0  0  0  0  0  0  0  0  0  0  0
  1 13  2  0  0  0  0
  2 24  1  0  0  0  0
  2 30  1  0  0  0  0
  3 26  2  0  0  0  0
  4 27  1  0  0  0  0
  5  9  1  0  0  0  0
  5 11  1  0  0  0  0
  6 12  1  0  0  0  0
  6 13  1  0  0  0  0
  7 26  1  0  0  0  0
  7 29  1  0  0  0  0
  8 32  1  0  0  0  0
  8 33  1  0  0  0  0
  8 34  1  0  0  0  0
  9 10  1  0  0  0  0
  9 15  2  0  0  0  0
 10 13  1  0  0  0  0
 10 17  2  0  0  0  0
 11 12  1  0  0  0  0
 11 21  2  0  0  0  0
 12 18  2  0  0  0  0
 14 15  1  0  0  0  0
 14 16  1  0  0  0  0
 14 20  2  0  0  0  0
 16 23  1  0  0  0  0
 16 25  2  0  0  0  0
 17 20  1  0  0  0  0
 18 19  1  0  0  0  0
 19 22  2  0  0  0  0
 19 26  1  0  0  0  0
 21 22  1  0  0  0  0
 23 24  2  0  0  0  0
 24 27  1  0  0  0  0
 25 28  1  0  0  0  0
 27 28  2  0  0  0  0
 29 31  1  0  0  0  0
 31 32  1  0  0  0  0
M  END
> <Value>
7.199970640755866

> <Relation>
=

> <SourceURI>
mol:CHEMBL1996702

$$$$

Generated by Molecular Materials Informatics

 33 37  0  0  0  0  0  0  0  0999 V2000
    2.6986    2.2634    0.0000 N   0  0  0  0  0  0  0  0  0  0  0  0
    1.3957    1.5134    0.0000 C   0  0  0  0  0  0  0  0  0  0  0  0
    3.9940    1.5134    0.0000 C   0  0  0  0  0  0  0  0  0  0  0  0
    1.3957    0.0134    0.0000 N   0  0  0  0  0  0  0  0  0  0  0  0
    2.6986   -0.7366    0.0000 C   0  0  0  0  0  0  0  0  0  0  0  0
    3.9940   -2.9866    0.0000 C   0  0  0  0  0  0  0  0  0  0  0  0
    4.3804   -4.4335    0.0000 N   0  0  0  0  0  0  0  0  0  0  0  0
    5.2971    2.2634    0.0000 N   0  0  0  0  0  0  0  0  0  0  0  0
    5.2517   -2.1684    0.0000 C   0  0  0  0  0  0  0  0  0  0  0  0
    3.9940    0.0134    0.0000 C   0  0  0  0  0  0  0  0  0  0  0  0
   -6.3998    0.0134    0.0000 C   0  0  0  0  0  0  0  0  0  0  0  0
    5.8804   -4.5093    0.0000 N   0  0  0  0  0  0  0  0  0  0  0  0
   -7.6952   -0.7366    0.0000 C   0  0  0  0  0  0  0  0  0  0  0  0
    2.6986   -2.2366    0.0000 N   0  0  0  0  0  0  0  0  0  0  0  0
    6.4184   -3.1077    0.0000 C   0  0  0  0  0  0  0  0  0  0  0  0
   -8.4452   -2.0320    0.0000 C   0  0  0  0  0  0  0  0  0  0  0  0
   -9.1952   -0.7366    0.0000 C   0  0  0  0  0  0  0  0  0  0  0  0
   -5.0969   -0.7366    0.0000 N   0  0  0  0  0  0  0  0  0  0  0  0
    0.1002    2.2634    0.0000 S   0  0  0  0  0  0  0  0  0  0  0  0
    7.8957    3.7634    0.0000 N   0  0  0  0  0  0  0  0  0  0  0  0
   -6.3998    1.5134    0.0000 O   0  0  0  0  0  0  0  0  0  0  0  0
    5.2971    3.7634    0.0000 C   0  0  0  0  0  0  0  0  0  0  0  0
    6.5926    1.5134    0.0000 C   0  0  0  0  0  0  0  0  0  0  0  0
   -3.8014    0.0134    0.0000 C   0  0  0  0  0  0  0  0  0  0  0  0
    7.8957    2.2634    0.0000 C   0  0  0  0  0  0  0  0  0  0  0  0
    6.5926    4.5134    0.0000 C   0  0  0  0  0  0  0  0  0  0  0  0
   -1.2029    1.5134    0.0000 C   0  0  0  0  0  0  0  0  0  0  0  0
   -3.8014    1.5134    0.0000 C   0  0  0  0  0  0  0  0  0  0  0  0
   -2.4983   -0.7366    0.0000 C   0  0  0  0  0  0  0  0  0  0  0  0
   -1.2029    0.0134    0.0000 C   0  0  0  0  0  0  0  0  0  0  0  0
   -2.4983    2.2634    0.0000 C   0  0  0  0  0  0  0  0  0  0  0  0
    9.1911    4.5134    0.0000 C   0  0  0  0  0  0  0  0  0  0  0  0
    7.8653   -2.7213    0.0000 C   0  0  0  0  0  0  0  0  0  0  0  0
  2  1  1  0  0  0  0
  3  1  2  0  0  0  0
  4  2  2  0  0  0  0
  5  4  1  0  0  0  0
  6 14  1  0  0  0  0
  7  6  2  0  0  0  0
  8  3  1  0  0  0  0
  9  6  1  0  0  0  0
 10  3  1  0  0  0  0
 11 18  1  0  0  0  0
 12  7  1  0  0  0  0
 13 11  1  0  0  0  0
 14  5  1  0  0  0  0
 15  9  2  0  0  0  0
 16 13  1  0  0  0  0
 17 13  1  0  0  0  0
 18 24  1  0  0  0  0
 19  2  1  0  0  0  0
 20 26  1  0  0  0  0
 21 11  2  0  0  0  0
 22  8  1  0  0  0  0
 23  8  1  0  0  0  0
 24 28  2  0  0  0  0
 25 23  1  0  0  0  0
 26 22  1  0  0  0  0
 27 19  1  0  0  0  0
 28 31  1  0  0  0  0
 29 30  2  0  0  0  0
 30 27  1  0  0  0  0
 31 27  2  0  0  0  0
 32 20  1  0  0  0  0
 33 15  1  0  0  0  0
 10  5  2  0  0  0  0
 20 25  1  0  0  0  0
 29 24  1  0  0  0  0
 15 12  1  0  0  0  0
 16 17  1  0  0  0  0
M  END
> <Value>
5.300000202445418

> <Relation>
<

> <SourceURI>
mol:CHEMBL572878

$$$$

Generated by Molecular Materials Informatics

 27 29  0  0  0  0  0  0  0  0999 V2000
    7.0473    4.7437    0.0000 F   0  0  0  0  0  0  0  0  0  0  0  0
    6.4982    6.7928    0.0000 F   0  0  0  0  0  0  0  0  0  0  0  0
    4.9982    4.1947    0.0000 F   0  0  0  0  0  0  0  0  0  0  0  0
    1.8511    3.2438    0.0000 O   0  0  0  0  0  0  0  0  0  0  0  0
   -0.7469   -7.2563    0.0000 O   0  0  0  0  0  0  0  0  0  0  0  0
    0.5520    5.4937    0.0000 N   0  0  0  0  0  0  0  0  0  0  0  0
   -0.7469    3.2438    0.0000 N   0  0  0  0  0  0  0  0  0  0  0  0
    0.5520   -3.5062    0.0000 N   0  0  0  0  0  0  0  0  0  0  0  0
    0.5520   -5.0062    0.0000 N   0  0  0  0  0  0  0  0  0  0  0  0
    4.4493    6.2437    0.0000 C   0  0  0  0  0  0  0  0  0  0  0  0
    5.7482    5.4937    0.0000 C   0  0  0  0  0  0  0  0  0  0  0  0
    1.8511    6.2437    0.0000 C   0  0  0  0  0  0  0  0  0  0  0  0
   -0.7469   -1.2562    0.0000 C   0  0  0  0  0  0  0  0  0  0  0  0
    3.1502    5.4937    0.0000 C   0  0  0  0  0  0  0  0  0  0  0  0
   -0.7469   -2.7562    0.0000 C   0  0  0  0  0  0  0  0  0  0  0  0
   -0.7469    1.7437    0.0000 C   0  0  0  0  0  0  0  0  0  0  0  0
    4.4493    7.7437    0.0000 C   0  0  0  0  0  0  0  0  0  0  0  0
    0.5520    3.9937    0.0000 C   0  0  0  0  0  0  0  0  0  0  0  0
   -2.0460   -0.5062    0.0000 C   0  0  0  0  0  0  0  0  0  0  0  0
    0.5520   -0.5062    0.0000 C   0  0  0  0  0  0  0  0  0  0  0  0
    1.8511    7.7437    0.0000 C   0  0  0  0  0  0  0  0  0  0  0  0
   -2.0460    0.9938    0.0000 C   0  0  0  0  0  0  0  0  0  0  0  0
    0.5520    0.9938    0.0000 C   0  0  0  0  0  0  0  0  0  0  0  0
    3.1502    8.4937    0.0000 C   0  0  0  0  0  0  0  0  0  0  0  0
   -2.0460   -3.5062    0.0000 C   0  0  0  0  0  0  0  0  0  0  0  0
   -0.7469   -5.7562    0.0000 C   0  0  0  0  0  0  0  0  0  0  0  0
   -2.0460   -5.0062    0.0000 C   0  0  0  0  0  0  0  0  0  0  0  0
  1 11  1  0  0  0  0
  2 11  1  0  0  0  0
  3 11  1  0  0  0  0
  4 18  2  0  0  0  0
  5 26  2  0  0  0  0
  6 12  1  0  0  0  0
  6 18  1  0  0  0  0
  7 16  1  0  0  0  0
  7 18  1  0  0  0  0
  8  9  1  0  0  0  0
  8 15  2  0  0  0  0
  9 26  1  0  0  0  0
 10 11  1  0  0  0  0
 10 14  1  0  0  0  0
 10 17  2  0  0  0  0
 12 14  2  0  0  0  0
 12 21  1  0  0  0  0
 13 15  1  0  0  0  0
 13 19  2  0  0  0  0
 13 20  1  0  0  0  0
 15 25  1  0  0  0  0
 16 22  2  0  0  0  0
 16 23  1  0  0  0  0
 17 24  1  0  0  0  0
 19 22  1  0  0  0  0
 20 23  2  0  0  0  0
 21 24  2  0  0  0  0
 25 27  2  0  0  0  0
 26 27  1  0  0  0  0
M  END
> <Value>
5.300000202445418

> <Relation>
<

> <SourceURI>
mol:CHEMBL2007124

$$$$

Generated by Molecular Materials Informatics

 23 26  0  0  0  0  0  0  0  0999 V2000
   -5.0107    3.8431    0.0000 Cl  0  0  0  0  0  0  0  0  0  0  0  0
   -0.6090    2.9077    0.0000 N   0  0  0  0  0  0  0  0  0  0  0  0
   -1.1492   -2.0607    0.0000 N   0  0  0  0  0  0  0  0  0  0  0  0
   -2.5398    4.6460    0.0000 N   0  0  0  0  0  0  0  0  0  0  0  0
    1.5764   -2.3473    0.0000 N   0  0  0  0  0  0  0  0  0  0  0  0
   -0.0689    5.4489    0.0000 N   0  0  0  0  0  0  0  0  0  0  0  0
   -1.1492    0.3662    0.0000 C   0  0  0  0  0  0  0  0  0  0  0  0
    0.2773   -0.0973    0.0000 C   0  0  0  0  0  0  0  0  0  0  0  0
   -1.6129    1.7929    0.0000 C   0  0  0  0  0  0  0  0  0  0  0  0
    0.2773   -1.5973    0.0000 C   0  0  0  0  0  0  0  0  0  0  0  0
   -2.0309   -0.8473    0.0000 C   0  0  0  0  0  0  0  0  0  0  0  0
   -1.0727    4.3342    0.0000 C   0  0  0  0  0  0  0  0  0  0  0  0
   -3.0800    2.1047    0.0000 C   0  0  0  0  0  0  0  0  0  0  0  0
    1.5764    0.6527    0.0000 C   0  0  0  0  0  0  0  0  0  0  0  0
   -3.5436    3.5313    0.0000 C   0  0  0  0  0  0  0  0  0  0  0  0
    2.8753   -0.0973    0.0000 C   0  0  0  0  0  0  0  0  0  0  0  0
    2.8753   -1.5973    0.0000 C   0  0  0  0  0  0  0  0  0  0  0  0
    1.3982    5.1369    0.0000 C   0  0  0  0  0  0  0  0  0  0  0  0
    2.4021    6.2517    0.0000 C   0  0  0  0  0  0  0  0  0  0  0  0
    1.8619    3.7104    0.0000 C   0  0  0  0  0  0  0  0  0  0  0  0
    3.8691    5.9398    0.0000 C   0  0  0  0  0  0  0  0  0  0  0  0
    3.3290    3.3986    0.0000 C   0  0  0  0  0  0  0  0  0  0  0  0
    4.3328    4.5133    0.0000 C   0  0  0  0  0  0  0  0  0  0  0  0
  1 15  1  0  0  0  0
  2  9  2  0  0  0  0
  2 12  1  0  0  0  0
  3 10  1  0  0  0  0
  3 11  1  0  0  0  0
  4 12  2  0  0  0  0
  4 15  1  0  0  0  0
  5 10  2  0  0  0  0
  5 17  1  0  0  0  0
  6 12  1  0  0  0  0
  6 18  1  0  0  0  0
  7  8  1  0  0  0  0
  7  9  1  0  0  0  0
  7 11  2  0  0  0  0
  8 10  1  0  0  0  0
  8 14  2  0  0  0  0
  9 13  1  0  0  0  0
 13 15  2  0  0  0  0
 14 16  1  0  0  0  0
 16 17  2  0  0  0  0
 18 19  1  0  0  0  0
 18 20  1  0  0  0  0
 19 21  1  0  0  0  0
 20 22  1  0  0  0  0
 21 23  1  0  0  0  0
 22 23  1  0  0  0  0
M  END
> <Value>
6.299997602857746

> <Relation>
=

> <SourceURI>
mol:CHEMBL2006439

$$$$

Generated by Molecular Materials Informatics

 23 26  0  0  0  0  0  0  0  0999 V2000
   -0.9639   -4.7543    0.0000 O   0  0  0  0  0  0  0  0  0  0  0  0
    3.2743    2.2411    0.0000 O   0  0  0  0  0  0  0  0  0  0  0  0
   -3.5457   -4.0625    0.0000 N   0  0  0  0  0  0  0  0  0  0  0  0
    0.6763   -2.2589    0.0000 N   0  0  0  0  0  0  0  0  0  0  0  0
   -6.1499    2.9427    0.0000 N   0  0  0  0  0  0  0  0  0  0  0  0
   -1.9217   -2.2589    0.0000 C   0  0  0  0  0  0  0  0  0  0  0  0
   -3.2921   -1.6487    0.0000 C   0  0  0  0  0  0  0  0  0  0  0  0
   -0.6228   -1.5089    0.0000 C   0  0  0  0  0  0  0  0  0  0  0  0
   -4.2957   -2.7634    0.0000 C   0  0  0  0  0  0  0  0  0  0  0  0
   -2.0786   -3.7507    0.0000 C   0  0  0  0  0  0  0  0  0  0  0  0
    1.9754   -1.5089    0.0000 C   0  0  0  0  0  0  0  0  0  0  0  0
    1.9754   -0.0089    0.0000 C   0  0  0  0  0  0  0  0  0  0  0  0
   -3.7557   -0.2222    0.0000 C   0  0  0  0  0  0  0  0  0  0  0  0
   -0.6228   -0.0089    0.0000 C   0  0  0  0  0  0  0  0  0  0  0  0
   -5.7630   -2.4516    0.0000 C   0  0  0  0  0  0  0  0  0  0  0  0
   -5.2228    0.0897    0.0000 C   0  0  0  0  0  0  0  0  0  0  0  0
    0.6763    0.7411    0.0000 C   0  0  0  0  0  0  0  0  0  0  0  0
    3.2743    0.7411    0.0000 C   0  0  0  0  0  0  0  0  0  0  0  0
   -6.2266   -1.0251    0.0000 C   0  0  0  0  0  0  0  0  0  0  0  0
    3.2743   -2.2589    0.0000 C   0  0  0  0  0  0  0  0  0  0  0  0
    4.5734   -0.0089    0.0000 C   0  0  0  0  0  0  0  0  0  0  0  0
    4.5734   -1.5089    0.0000 C   0  0  0  0  0  0  0  0  0  0  0  0
   -5.6864    1.5162    0.0000 C   0  0  0  0  0  0  0  0  0  0  0  0
  1 10  2  0  0  0  0
  2 18  1  0  0  0  0
  3  9  1  0  0  0  0
  3 10  1  0  0  0  0
  4  8  1  0  0  0  0
  4 11  2  0  0  0  0
  5 23  3  0  0  0  0
  6  7  1  0  0  0  0
  6  8  1  0  0  0  0
  6 10  1  0  0  0  0
  7  9  1  0  0  0  0
  7 13  2  0  0  0  0
  8 14  2  0  0  0  0
  9 15  2  0  0  0  0
 11 12  1  0  0  0  0
 11 20  1  0  0  0  0
 12 17  2  0  0  0  0
 12 18  1  0  0  0  0
 13 16  1  0  0  0  0
 14 17  1  0  0  0  0
 15 19  1  0  0  0  0
 16 19  2  0  0  0  0
 16 23  1  0  0  0  0
 18 21  1  0  0  0  0
 20 22  1  0  0  0  0
 21 22  1  0  0  0  0
M  END
> <Value>
5.899998417198648

> <Relation>
=

> <SourceURI>
mol:CHEMBL1985681

$$$$

Generated by Molecular Materials Informatics

 30 33  0  0  0  0  0  0  0  0999 V2000
   -3.9705   -8.0854    0.0000 F   0  0  0  0  0  0  0  0  0  0  0  0
   -1.3723  -12.5854    0.0000 F   0  0  0  0  0  0  0  0  0  0  0  0
   -0.2009    2.8781    0.0000 O   0  0  0  0  0  0  0  0  0  0  0  0
    2.5247    4.6646    0.0000 O   0  0  0  0  0  0  0  0  0  0  0  0
   -0.0734   -5.8354    0.0000 O   0  0  0  0  0  0  0  0  0  0  0  0
   -1.0825    1.6646    0.0000 N   0  0  0  0  0  0  0  0  0  0  0  0
   -0.6643   -0.9756    0.0000 N   0  0  0  0  0  0  0  0  0  0  0  0
    2.5247   -5.8354    0.0000 N   0  0  0  0  0  0  0  0  0  0  0  0
    1.2256   -8.0854    0.0000 N   0  0  0  0  0  0  0  0  0  0  0  0
    1.2256    0.9146    0.0000 C   0  0  0  0  0  0  0  0  0  0  0  0
    1.2256    2.4146    0.0000 C   0  0  0  0  0  0  0  0  0  0  0  0
    2.5247    0.1646    0.0000 C   0  0  0  0  0  0  0  0  0  0  0  0
   -0.2009    0.4510    0.0000 C   0  0  0  0  0  0  0  0  0  0  0  0
    2.5247    3.1646    0.0000 C   0  0  0  0  0  0  0  0  0  0  0  0
    2.5247   -1.3354    0.0000 C   0  0  0  0  0  0  0  0  0  0  0  0
    3.8238    0.9146    0.0000 C   0  0  0  0  0  0  0  0  0  0  0  0
    3.8238    2.4146    0.0000 C   0  0  0  0  0  0  0  0  0  0  0  0
    3.8238   -2.0854    0.0000 C   0  0  0  0  0  0  0  0  0  0  0  0
    1.2256   -2.0854    0.0000 C   0  0  0  0  0  0  0  0  0  0  0  0
    2.5247   -4.3354    0.0000 C   0  0  0  0  0  0  0  0  0  0  0  0
    3.8238   -3.5854    0.0000 C   0  0  0  0  0  0  0  0  0  0  0  0
    1.2256   -3.5854    0.0000 C   0  0  0  0  0  0  0  0  0  0  0  0
   -0.0734   -8.8354    0.0000 C   0  0  0  0  0  0  0  0  0  0  0  0
    1.2256   -6.5854    0.0000 C   0  0  0  0  0  0  0  0  0  0  0  0
   -0.0734  -10.3354    0.0000 C   0  0  0  0  0  0  0  0  0  0  0  0
   -1.3723   -8.0854    0.0000 C   0  0  0  0  0  0  0  0  0  0  0  0
   -2.6714   -8.8354    0.0000 C   0  0  0  0  0  0  0  0  0  0  0  0
   -1.3723  -11.0854    0.0000 C   0  0  0  0  0  0  0  0  0  0  0  0
    1.2256    5.4146    0.0000 C   0  0  0  0  0  0  0  0  0  0  0  0
   -2.6714  -10.3354    0.0000 C   0  0  0  0  0  0  0  0  0  0  0  0
  1 27  1  0  0  0  0
  2 28  1  0  0  0  0
  3  6  1  0  0  0  0
  3 11  1  0  0  0  0
  4 14  1  0  0  0  0
  4 29  1  0  0  0  0
  5 24  2  0  0  0  0
  6 13  2  0  0  0  0
  7 13  1  0  0  0  0
  8 20  1  0  0  0  0
  8 24  1  0  0  0  0
  9 23  1  0  0  0  0
  9 24  1  0  0  0  0
 10 11  2  0  0  0  0
 10 12  1  0  0  0  0
 10 13  1  0  0  0  0
 11 14  1  0  0  0  0
 12 15  1  0  0  0  0
 12 16  2  0  0  0  0
 14 17  2  0  0  0  0
 15 18  2  0  0  0  0
 15 19  1  0  0  0  0
 16 17  1  0  0  0  0
 18 21  1  0  0  0  0
 19 22  2  0  0  0  0
 20 21  2  0  0  0  0
 20 22  1  0  0  0  0
 23 25  2  0  0  0  0
 23 26  1  0  0  0  0
 25 28  1  0  0  0  0
 26 27  2  0  0  0  0
 27 30  1  0  0  0  0
 28 30  2  0  0  0  0
M  END
> <Value>
5.899998417198648

> <Relation>
<

> <SourceURI>
mol:CHEMBL1969190

$$$$

Generated by Molecular Materials Informatics

 37 40  0  0  0  0  0  0  0  0999 V2000
    6.4233   -5.0043    0.0000 O   0  0  0  0  0  0  0  0  0  0  0  0
    7.2682    3.8848    0.0000 O   0  0  0  0  0  0  0  0  0  0  0  0
    2.0720    2.3848    0.0000 O   0  0  0  0  0  0  0  0  0  0  0  0
    9.8662   -2.1152    0.0000 N   0  0  0  0  0  0  0  0  0  0  0  0
   11.0798   -2.9968    0.0000 N   0  0  0  0  0  0  0  0  0  0  0  0
    7.2262   -2.5333    0.0000 N   0  0  0  0  0  0  0  0  0  0  0  0
    4.6849   -3.0735    0.0000 N   0  0  0  0  0  0  0  0  0  0  0  0
    5.9691    1.6348    0.0000 N   0  0  0  0  0  0  0  0  0  0  0  0
    8.6527   -2.9968    0.0000 C   0  0  0  0  0  0  0  0  0  0  0  0
   10.6162   -4.4233    0.0000 C   0  0  0  0  0  0  0  0  0  0  0  0
    9.8662   -0.6152    0.0000 C   0  0  0  0  0  0  0  0  0  0  0  0
    9.1162   -4.4233    0.0000 C   0  0  0  0  0  0  0  0  0  0  0  0
   11.4980   -5.6370    0.0000 C   0  0  0  0  0  0  0  0  0  0  0  0
    8.5673    0.1348    0.0000 C   0  0  0  0  0  0  0  0  0  0  0  0
    8.5673    1.6348    0.0000 C   0  0  0  0  0  0  0  0  0  0  0  0
   11.1653    0.1348    0.0000 C   0  0  0  0  0  0  0  0  0  0  0  0
    6.1114   -3.5370    0.0000 C   0  0  0  0  0  0  0  0  0  0  0  0
    3.5702   -4.0772    0.0000 C   0  0  0  0  0  0  0  0  0  0  0  0
    2.1434   -3.6137    0.0000 C   0  0  0  0  0  0  0  0  0  0  0  0
    7.2682    2.3848    0.0000 C   0  0  0  0  0  0  0  0  0  0  0  0
    9.8662    2.3848    0.0000 C   0  0  0  0  0  0  0  0  0  0  0  0
    1.0289   -4.6173    0.0000 C   0  0  0  0  0  0  0  0  0  0  0  0
   11.1653    1.6348    0.0000 C   0  0  0  0  0  0  0  0  0  0  0  0
   12.3796   -6.8504    0.0000 C   0  0  0  0  0  0  0  0  0  0  0  0
   10.2844   -6.5186    0.0000 C   0  0  0  0  0  0  0  0  0  0  0  0
   12.7114   -4.7553    0.0000 C   0  0  0  0  0  0  0  0  0  0  0  0
    3.8820   -5.5444    0.0000 C   0  0  0  0  0  0  0  0  0  0  0  0
    1.8316   -2.1464    0.0000 C   0  0  0  0  0  0  0  0  0  0  0  0
    1.3407   -6.0846    0.0000 C   0  0  0  0  0  0  0  0  0  0  0  0
   -0.3978   -4.1539    0.0000 C   0  0  0  0  0  0  0  0  0  0  0  0
    2.7673   -6.5481    0.0000 C   0  0  0  0  0  0  0  0  0  0  0  0
    0.4051   -1.6830    0.0000 C   0  0  0  0  0  0  0  0  0  0  0  0
   -0.7096   -2.6866    0.0000 C   0  0  0  0  0  0  0  0  0  0  0  0
    4.6702    2.3848    0.0000 C   0  0  0  0  0  0  0  0  0  0  0  0
    5.9691    0.1348    0.0000 C   0  0  0  0  0  0  0  0  0  0  0  0
    3.3711    1.6348    0.0000 C   0  0  0  0  0  0  0  0  0  0  0  0
    0.7729    1.6348    0.0000 C   0  0  0  0  0  0  0  0  0  0  0  0
  1 17  2  0  0  0  0
  2 20  2  0  0  0  0
  3 36  1  0  0  0  0
  3 37  1  0  0  0  0
  4  5  1  0  0  0  0
  4  9  1  0  0  0  0
  4 11  1  0  0  0  0
  5 10  2  0  0  0  0
  6  9  1  0  0  0  0
  6 17  1  0  0  0  0
  7 17  1  0  0  0  0
  7 18  1  0  0  0  0
  8 20  1  0  0  0  0
  8 34  1  0  0  0  0
  8 35  1  0  0  0  0
  9 12  2  0  0  0  0
 10 12  1  0  0  0  0
 10 13  1  0  0  0  0
 11 14  2  0  0  0  0
 11 16  1  0  0  0  0
 13 24  1  0  0  0  0
 13 25  1  0  0  0  0
 13 26  1  0  0  0  0
 14 15  1  0  0  0  0
 15 20  1  0  0  0  0
 15 21  2  0  0  0  0
 16 23  2  0  0  0  0
 18 19  1  0  0  0  0
 18 27  2  0  0  0  0
 19 22  1  0  0  0  0
 19 28  2  0  0  0  0
 21 23  1  0  0  0  0
 22 29  1  0  0  0  0
 22 30  2  0  0  0  0
 27 31  1  0  0  0  0
 28 32  1  0  0  0  0
 29 31  2  0  0  0  0
 30 33  1  0  0  0  0
 32 33  2  0  0  0  0
 34 36  1  0  0  0  0
M  END
> <Value>
5.300000202445418

> <Relation>
<

> <SourceURI>
mol:CHEMBL2002660

$$$$

Generated by Molecular Materials Informatics

 28 31  0  0  0  0  0  0  0  0999 V2000
    6.1774   11.0208    0.0000 Br  0  0  0  0  0  0  0  0  0  0  0  0
    4.8785    4.2708    0.0000 O   0  0  0  0  0  0  0  0  0  0  0  0
   -0.4453   -4.4428    0.0000 N   0  0  0  0  0  0  0  0  0  0  0  0
   -1.3270   -3.2291    0.0000 N   0  0  0  0  0  0  0  0  0  0  0  0
   -0.9088   -0.5891    0.0000 N   0  0  0  0  0  0  0  0  0  0  0  0
    2.2803    4.2708    0.0000 N   0  0  0  0  0  0  0  0  0  0  0  0
    3.5794    6.5208    0.0000 N   0  0  0  0  0  0  0  0  0  0  0  0
    0.9812   -2.4791    0.0000 C   0  0  0  0  0  0  0  0  0  0  0  0
    2.2803   -1.7291    0.0000 C   0  0  0  0  0  0  0  0  0  0  0  0
    0.9812   -3.9791    0.0000 C   0  0  0  0  0  0  0  0  0  0  0  0
   -0.4453   -2.0157    0.0000 C   0  0  0  0  0  0  0  0  0  0  0  0
    2.2803   -0.2291    0.0000 C   0  0  0  0  0  0  0  0  0  0  0  0
    2.2803   -4.7291    0.0000 C   0  0  0  0  0  0  0  0  0  0  0  0
    3.5794   -2.4791    0.0000 C   0  0  0  0  0  0  0  0  0  0  0  0
    3.5794   -3.9791    0.0000 C   0  0  0  0  0  0  0  0  0  0  0  0
    0.9812    0.5209    0.0000 C   0  0  0  0  0  0  0  0  0  0  0  0
    3.5794    0.5209    0.0000 C   0  0  0  0  0  0  0  0  0  0  0  0
    2.2803    2.7708    0.0000 C   0  0  0  0  0  0  0  0  0  0  0  0
    0.9812    2.0209    0.0000 C   0  0  0  0  0  0  0  0  0  0  0  0
    3.5794    2.0209    0.0000 C   0  0  0  0  0  0  0  0  0  0  0  0
    2.2803   -6.2291    0.0000 C   0  0  0  0  0  0  0  0  0  0  0  0
    3.5794    5.0208    0.0000 C   0  0  0  0  0  0  0  0  0  0  0  0
    4.8785    7.2708    0.0000 C   0  0  0  0  0  0  0  0  0  0  0  0
    4.8785    8.7708    0.0000 C   0  0  0  0  0  0  0  0  0  0  0  0
    6.1774    9.5208    0.0000 C   0  0  0  0  0  0  0  0  0  0  0  0
    6.1774    6.5208    0.0000 C   0  0  0  0  0  0  0  0  0  0  0  0
    7.4765    8.7708    0.0000 C   0  0  0  0  0  0  0  0  0  0  0  0
    7.4765    7.2708    0.0000 C   0  0  0  0  0  0  0  0  0  0  0  0
  1 25  1  0  0  0  0
  2 22  2  0  0  0  0
  3  4  1  0  0  0  0
  3 10  1  0  0  0  0
  4 11  2  0  0  0  0
  5 11  1  0  0  0  0
  6 18  1  0  0  0  0
  6 22  1  0  0  0  0
  7 22  1  0  0  0  0
  7 23  1  0  0  0  0
  8  9  1  0  0  0  0
  8 10  2  0  0  0  0
  8 11  1  0  0  0  0
  9 12  1  0  0  0  0
  9 14  2  0  0  0  0
 10 13  1  0  0  0  0
 12 16  2  0  0  0  0
 12 17  1  0  0  0  0
 13 15  2  0  0  0  0
 13 21  1  0  0  0  0
 14 15  1  0  0  0  0
 16 19  1  0  0  0  0
 17 20  2  0  0  0  0
 18 19  2  0  0  0  0
 18 20  1  0  0  0  0
 23 24  1  0  0  0  0
 23 26  2  0  0  0  0
 24 25  2  0  0  0  0
 25 27  1  0  0  0  0
 26 28  1  0  0  0  0
 27 28  2  0  0  0  0
M  END
> <Value>
5.899998417198648

> <Relation>
<

> <SourceURI>
mol:CHEMBL1973937

$$$$

Generated by Molecular Materials Informatics

 34 37  0  0  0  0  0  0  0  0999 V2000
   -5.7398   -0.9673    0.0000 N   0  0  0  0  0  0  0  0  0  0  0  0
    2.0543   -0.9673    0.0000 N   0  0  0  0  0  0  0  0  0  0  0  0
   -4.4409   -1.7173    0.0000 C   0  0  0  0  0  0  0  0  0  0  0  0
    0.7553   -1.7173    0.0000 C   0  0  0  0  0  0  0  0  0  0  0  0
   -7.0389   -1.7173    0.0000 C   0  0  0  0  0  0  0  0  0  0  0  0
   -3.1418   -0.9673    0.0000 N   0  0  0  0  0  0  0  0  0  0  0  0
    3.3534   -1.7173    0.0000 C   0  0  0  0  0  0  0  0  0  0  0  0
   -5.7398   -3.9673    0.0000 O   0  0  0  0  0  0  0  0  0  0  0  0
   -7.0389   -3.2173    0.0000 C   0  0  0  0  0  0  0  0  0  0  0  0
   -0.5437   -0.9673    0.0000 N   0  0  0  0  0  0  0  0  0  0  0  0
    0.7553   -3.2173    0.0000 C   0  0  0  0  0  0  0  0  0  0  0  0
    4.6523    3.5327    0.0000 C   0  0  0  0  0  0  0  0  0  0  0  0
   -4.4409   -3.2173    0.0000 C   0  0  0  0  0  0  0  0  0  0  0  0
   -1.8427   -1.7173    0.0000 C   0  0  0  0  0  0  0  0  0  0  0  0
    5.9514    2.7827    0.0000 C   0  0  0  0  0  0  0  0  0  0  0  0
    3.3534    2.7827    0.0000 C   0  0  0  0  0  0  0  0  0  0  0  0
    3.3534   -3.2173    0.0000 N   0  0  0  0  0  0  0  0  0  0  0  0
    4.6523    0.5327    0.0000 C   0  0  0  0  0  0  0  0  0  0  0  0
    5.9514    1.2827    0.0000 C   0  0  0  0  0  0  0  0  0  0  0  0
    3.3534    1.2827    0.0000 C   0  0  0  0  0  0  0  0  0  0  0  0
    4.6523   -0.9673    0.0000 N   0  0  0  0  0  0  0  0  0  0  0  0
    2.0543   -3.9673    0.0000 C   0  0  0  0  0  0  0  0  0  0  0  0
   -8.3380   -0.9673    0.0000 O   0  0  0  0  0  0  0  0  0  0  0  0
   -3.1418   -3.9673    0.0000 C   0  0  0  0  0  0  0  0  0  0  0  0
   -0.5437   -3.9673    0.0000 F   0  0  0  0  0  0  0  0  0  0  0  0
   -1.8427   -3.2173    0.0000 C   0  0  0  0  0  0  0  0  0  0  0  0
    4.6523    5.0327    0.0000 O   0  0  0  0  0  0  0  0  0  0  0  0
    2.0543    3.5327    0.0000 O   0  0  0  0  0  0  0  0  0  0  0  0
    7.2505    3.5327    0.0000 O   0  0  0  0  0  0  0  0  0  0  0  0
   -8.5380   -3.2697    0.0000 C   0  0  0  0  0  0  0  0  0  0  0  0
   -7.8338   -4.4893    0.0000 C   0  0  0  0  0  0  0  0  0  0  0  0
    3.3534    5.7827    0.0000 C   0  0  0  0  0  0  0  0  0  0  0  0
    0.7553    2.7827    0.0000 C   0  0  0  0  0  0  0  0  0  0  0  0
    8.5496    2.7827    0.0000 C   0  0  0  0  0  0  0  0  0  0  0  0
  3  1  1  0  0  0  0
  5  1  1  0  0  0  0
  4  2  2  0  0  0  0
  7  2  1  0  0  0  0
  3  6  2  0  0  0  0
 13  3  1  0  0  0  0
  4 10  1  0  0  0  0
 11  4  1  0  0  0  0
  5  9  1  0  0  0  0
  5 23  2  0  0  0  0
 14  6  1  0  0  0  0
  7 17  2  0  0  0  0
  7 21  1  0  0  0  0
  9  8  1  0  0  0  0
 13  8  1  0  0  0  0
 30  9  1  0  0  0  0
 31  9  1  0  0  0  0
 14 10  1  0  0  0  0
 11 22  2  0  0  0  0
 11 25  1  0  0  0  0
 12 15  2  0  0  0  0
 12 16  1  0  0  0  0
 12 27  1  0  0  0  0
 13 24  2  0  0  0  0
 14 26  2  0  0  0  0
 15 19  1  0  0  0  0
 15 29  1  0  0  0  0
 16 20  2  0  0  0  0
 16 28  1  0  0  0  0
 22 17  1  0  0  0  0
 18 19  2  0  0  0  0
 18 20  1  0  0  0  0
 18 21  1  0  0  0  0
 24 26  1  0  0  0  0
 32 27  1  0  0  0  0
 33 28  1  0  0  0  0
 34 29  1  0  0  0  0
M  END
> <Value>
7.100015437450609

> <Relation>
=

> <SourceURI>
mol:CHEMBL475251

$$$$

Generated by Molecular Materials Informatics

 23 26  0  0  0  0  0  0  0  0999 V2000
    1.6803   -1.8010    0.0000 N   0  0  0  0  0  0  0  0  0  0  0  0
    2.2294    2.7572    0.0000 N   0  0  0  0  0  0  0  0  0  0  0  0
    0.1803   -1.8010    0.0000 N   0  0  0  0  0  0  0  0  0  0  0  0
    0.9303    5.0072    0.0000 N   0  0  0  0  0  0  0  0  0  0  0  0
   -1.7953    4.7208    0.0000 N   0  0  0  0  0  0  0  0  0  0  0  0
    3.7152   -6.8119    0.0000 N   0  0  0  0  0  0  0  0  0  0  0  0
    0.9303    2.0072    0.0000 C   0  0  0  0  0  0  0  0  0  0  0  0
   -0.3688    2.7572    0.0000 C   0  0  0  0  0  0  0  0  0  0  0  0
    0.9303    0.5072    0.0000 C   0  0  0  0  0  0  0  0  0  0  0  0
   -0.3688    4.2572    0.0000 C   0  0  0  0  0  0  0  0  0  0  0  0
    2.1438   -0.3744    0.0000 C   0  0  0  0  0  0  0  0  0  0  0  0
    2.5619   -3.0144    0.0000 C   0  0  0  0  0  0  0  0  0  0  0  0
   -0.2833   -0.3744    0.0000 C   0  0  0  0  0  0  0  0  0  0  0  0
   -1.7953    2.2937    0.0000 C   0  0  0  0  0  0  0  0  0  0  0  0
    4.0538   -2.8577    0.0000 C   0  0  0  0  0  0  0  0  0  0  0  0
    2.2294    4.2572    0.0000 C   0  0  0  0  0  0  0  0  0  0  0  0
   -2.6770    3.5072    0.0000 C   0  0  0  0  0  0  0  0  0  0  0  0
    1.9519   -4.3848    0.0000 C   0  0  0  0  0  0  0  0  0  0  0  0
    4.8038   -1.5586    0.0000 C   0  0  0  0  0  0  0  0  0  0  0  0
    5.0574   -3.9724    0.0000 C   0  0  0  0  0  0  0  0  0  0  0  0
    6.2710   -1.8706    0.0000 C   0  0  0  0  0  0  0  0  0  0  0  0
    6.4278   -3.3623    0.0000 C   0  0  0  0  0  0  0  0  0  0  0  0
    2.8336   -5.5984    0.0000 C   0  0  0  0  0  0  0  0  0  0  0  0
  1  3  1  0  0  0  0
  1 11  1  0  0  0  0
  1 12  1  0  0  0  0
  2  7  2  0  0  0  0
  2 16  1  0  0  0  0
  3 13  2  0  0  0  0
  4 10  1  0  0  0  0
  4 16  2  0  0  0  0
  5 10  1  0  0  0  0
  5 17  1  0  0  0  0
  6 23  3  0  0  0  0
  7  8  1  0  0  0  0
  7  9  1  0  0  0  0
  8 10  2  0  0  0  0
  8 14  1  0  0  0  0
  9 11  2  0  0  0  0
  9 13  1  0  0  0  0
 12 15  1  0  0  0  0
 12 18  1  0  0  0  0
 14 17  2  0  0  0  0
 15 19  1  0  0  0  0
 15 20  1  0  0  0  0
 18 23  1  0  0  0  0
 19 21  1  0  0  0  0
 20 22  1  0  0  0  0
 21 22  1  0  0  0  0
M  END
> <Value>
6.9500043832276575

> <Error>
0.0999912335446842

> <Relation>
=

> <SourceURI>
mol:CHEMBL2002099

$$$$

Generated by Molecular Materials Informatics

 19 21  0  0  0  0  0  0  0  0999 V2000
    1.7828    1.9422    0.0000 Cl  0  0  0  0  0  0  0  0  0  0  0  0
   -1.7932    6.9768    0.0000 O   0  0  0  0  0  0  0  0  0  0  0  0
   -0.9428   -2.2712    0.0000 N   0  0  0  0  0  0  0  0  0  0  0  0
    1.7828   -2.5578    0.0000 N   0  0  0  0  0  0  0  0  0  0  0  0
   -4.2641    6.1741    0.0000 N   0  0  0  0  0  0  0  0  0  0  0  0
    0.4837   -0.3078    0.0000 C   0  0  0  0  0  0  0  0  0  0  0  0
   -0.9428    0.1557    0.0000 C   0  0  0  0  0  0  0  0  0  0  0  0
    0.4837   -1.8078    0.0000 C   0  0  0  0  0  0  0  0  0  0  0  0
   -1.4065    1.5824    0.0000 C   0  0  0  0  0  0  0  0  0  0  0  0
    1.7828    0.4422    0.0000 C   0  0  0  0  0  0  0  0  0  0  0  0
   -1.8245   -1.0578    0.0000 C   0  0  0  0  0  0  0  0  0  0  0  0
    3.0817   -0.3078    0.0000 C   0  0  0  0  0  0  0  0  0  0  0  0
   -2.8736    1.8942    0.0000 C   0  0  0  0  0  0  0  0  0  0  0  0
   -0.4027    2.6971    0.0000 C   0  0  0  0  0  0  0  0  0  0  0  0
    3.0817   -1.8078    0.0000 C   0  0  0  0  0  0  0  0  0  0  0  0
   -2.3334    4.4355    0.0000 C   0  0  0  0  0  0  0  0  0  0  0  0
   -3.3372    3.3208    0.0000 C   0  0  0  0  0  0  0  0  0  0  0  0
   -0.8663    4.1237    0.0000 C   0  0  0  0  0  0  0  0  0  0  0  0
   -2.7970    5.8621    0.0000 C   0  0  0  0  0  0  0  0  0  0  0  0
  1 10  1  0  0  0  0
  2 19  2  0  0  0  0
  3  8  1  0  0  0  0
  3 11  1  0  0  0  0
  4  8  2  0  0  0  0
  4 15  1  0  0  0  0
  5 19  1  0  0  0  0
  6  7  1  0  0  0  0
  6  8  1  0  0  0  0
  6 10  2  0  0  0  0
  7  9  1  0  0  0  0
  7 11  2  0  0  0  0
  9 13  2  0  0  0  0
  9 14  1  0  0  0  0
 10 12  1  0  0  0  0
 12 15  2  0  0  0  0
 13 17  1  0  0  0  0
 14 18  2  0  0  0  0
 16 17  2  0  0  0  0
 16 18  1  0  0  0  0
 16 19  1  0  0  0  0
M  END
> <Value>
5.899998417198648

> <Relation>
=

> <SourceURI>
mol:CHEMBL1982711

$$$$

Generated by Molecular Materials Informatics

 26 27  0  0  0  0  0  0  0  0999 V2000
    0.0274   -8.4248    0.0000 C   0  0  0  0  0  0  0  0  0  0  0  0
    0.0252   -9.9296    0.0000 C   0  0  0  0  0  0  0  0  0  0  0  0
    1.3215  -10.6804    0.0000 N   0  0  0  0  0  0  0  0  0  0  0  0
    2.6294   -9.9285    0.0000 C   0  0  0  0  0  0  0  0  0  0  0  0
    2.6237   -8.4176    0.0000 C   0  0  0  0  0  0  0  0  0  0  0  0
    1.3178   -7.6744    0.0000 C   0  0  0  0  0  0  0  0  0  0  0  0
    1.3108   -6.1744    0.0000 N   0  0  0  0  0  0  0  0  0  0  0  0
    3.9190   -7.6612    0.0000 C   0  0  0  0  0  0  0  0  0  0  0  0
    5.2124   -6.9120    0.0000 N   0  0  0  0  0  0  0  0  0  0  0  0
    3.9290  -10.6773    0.0000 O   0  0  0  0  0  0  0  0  0  0  0  0
    5.2275   -9.9262    0.0000 C   0  0  0  0  0  0  0  0  0  0  0  0
    6.5271  -10.6749    0.0000 C   0  0  0  0  0  0  0  0  0  0  0  0
   -1.2750  -10.6778    0.0000 C   0  0  0  0  0  0  0  0  0  0  0  0
   -2.5729   -9.9258    0.0000 N   0  0  0  0  0  0  0  0  0  0  0  0
   -3.8729  -10.6740    0.0000 C   0  0  0  0  0  0  0  0  0  0  0  0
   -5.1710   -9.9220    0.0000 C   0  0  0  0  0  0  0  0  0  0  0  0
   -5.1650   -8.4252    0.0000 C   0  0  0  0  0  0  0  0  0  0  0  0
   -6.4614   -7.6734    0.0000 C   0  0  0  0  0  0  0  0  0  0  0  0
   -7.7633   -8.4216    0.0000 C   0  0  0  0  0  0  0  0  0  0  0  0
   -7.7605   -9.9294    0.0000 C   0  0  0  0  0  0  0  0  0  0  0  0
   -6.4632  -10.6744    0.0000 C   0  0  0  0  0  0  0  0  0  0  0  0
   -1.2772  -12.1777    0.0000 O   0  0  0  0  0  0  0  0  0  0  0  0
   -9.0620   -7.6714    0.0000 S   0  0  0  0  0  0  0  0  0  0  0  0
  -10.3695   -6.9166    0.0000 C   0  0  0  0  0  0  0  0  0  0  0  0
   -8.3122   -6.3724    0.0000 O   0  0  0  0  0  0  0  0  0  0  0  0
   -9.8123   -8.9703    0.0000 O   0  0  0  0  0  0  0  0  0  0  0  0
  2 13  1  0  0  0  0
  1  2  2  0  0  0  0
 13 14  1  0  0  0  0
  6  7  1  0  0  0  0
 14 15  1  0  0  0  0
  3  4  2  0  0  0  0
 15 16  1  0  0  0  0
  5  8  1  0  0  0  0
 16 17  2  0  0  0  0
 17 18  1  0  0  0  0
  8  9  3  0  0  0  0
 18 19  2  0  0  0  0
  4  5  1  0  0  0  0
 19 20  1  0  0  0  0
  4 10  1  0  0  0  0
 20 21  2  0  0  0  0
 21 16  1  0  0  0  0
  2  3  1  0  0  0  0
 13 22  2  0  0  0  0
 10 11  1  0  0  0  0
 19 23  1  0  0  0  0
  5  6  2  0  0  0  0
 23 24  1  0  0  0  0
 11 12  1  0  0  0  0
 23 25  2  0  0  0  0
  6  1  1  0  0  0  0
 23 26  2  0  0  0  0
M  END
> <Value>
5.899998417198648

> <Relation>
<

> <SourceURI>
mol:CHEMBL424872

$$$$

Generated by Molecular Materials Informatics

 35 39  0  0  0  0  0  0  0  0999 V2000
    0.7929    3.4419    0.0000 S   0  0  0  0  0  0  0  0  0  0  0  0
   -3.5322   -3.8886    0.0000 O   0  0  0  0  0  0  0  0  0  0  0  0
    4.8176    1.4783    0.0000 N   0  0  0  0  0  0  0  0  0  0  0  0
    3.5185   -0.7717    0.0000 N   0  0  0  0  0  0  0  0  0  0  0  0
   -1.0613   -4.6915    0.0000 N   0  0  0  0  0  0  0  0  0  0  0  0
   -2.9920   -6.4299    0.0000 N   0  0  0  0  0  0  0  0  0  0  0  0
    4.8176   10.4783    0.0000 N   0  0  0  0  0  0  0  0  0  0  0  0
    2.2195    1.4783    0.0000 C   0  0  0  0  0  0  0  0  0  0  0  0
    2.2195    2.9783    0.0000 C   0  0  0  0  0  0  0  0  0  0  0  0
    0.7929    1.0148    0.0000 C   0  0  0  0  0  0  0  0  0  0  0  0
    3.5185    0.7283    0.0000 C   0  0  0  0  0  0  0  0  0  0  0  0
    3.5185    3.7283    0.0000 C   0  0  0  0  0  0  0  0  0  0  0  0
    0.3295   -0.4117    0.0000 C   0  0  0  0  0  0  0  0  0  0  0  0
   -0.0887    2.2283    0.0000 C   0  0  0  0  0  0  0  0  0  0  0  0
    4.8176    2.9783    0.0000 C   0  0  0  0  0  0  0  0  0  0  0  0
    1.3331   -1.5264    0.0000 C   0  0  0  0  0  0  0  0  0  0  0  0
   -1.1378   -0.7235    0.0000 C   0  0  0  0  0  0  0  0  0  0  0  0
    3.5185    5.2283    0.0000 C   0  0  0  0  0  0  0  0  0  0  0  0
   -0.5976   -3.2650    0.0000 C   0  0  0  0  0  0  0  0  0  0  0  0
    0.8695   -2.9530    0.0000 C   0  0  0  0  0  0  0  0  0  0  0  0
   -1.6015   -2.1502    0.0000 C   0  0  0  0  0  0  0  0  0  0  0  0
    3.5185    6.7283    0.0000 C   0  0  0  0  0  0  0  0  0  0  0  0
    3.5185    8.2283    0.0000 C   0  0  0  0  0  0  0  0  0  0  0  0
   -2.5284   -5.0033    0.0000 C   0  0  0  0  0  0  0  0  0  0  0  0
   -4.4591   -6.7419    0.0000 C   0  0  0  0  0  0  0  0  0  0  0  0
    4.8176    8.9783    0.0000 C   0  0  0  0  0  0  0  0  0  0  0  0
    2.2195    8.9783    0.0000 C   0  0  0  0  0  0  0  0  0  0  0  0
   -4.9227   -8.1684    0.0000 C   0  0  0  0  0  0  0  0  0  0  0  0
   -5.4629   -5.6272    0.0000 C   0  0  0  0  0  0  0  0  0  0  0  0
   -6.3900   -8.4802    0.0000 C   0  0  0  0  0  0  0  0  0  0  0  0
    2.2195   10.4783    0.0000 C   0  0  0  0  0  0  0  0  0  0  0  0
   -6.9302   -5.9390    0.0000 C   0  0  0  0  0  0  0  0  0  0  0  0
   -7.3936   -7.3655    0.0000 C   0  0  0  0  0  0  0  0  0  0  0  0
    3.5185   11.2283    0.0000 C   0  0  0  0  0  0  0  0  0  0  0  0
   -6.8535   -9.9068    0.0000 C   0  0  0  0  0  0  0  0  0  0  0  0
  1  9  1  0  0  0  0
  1 14  1  0  0  0  0
  2 24  2  0  0  0  0
  3 11  1  0  0  0  0
  3 15  2  0  0  0  0
  4 11  1  0  0  0  0
  5 19  1  0  0  0  0
  5 24  1  0  0  0  0
  6 24  1  0  0  0  0
  6 25  1  0  0  0  0
  7 26  2  0  0  0  0
  7 34  1  0  0  0  0
  8  9  1  0  0  0  0
  8 10  1  0  0  0  0
  8 11  2  0  0  0  0
  9 12  2  0  0  0  0
 10 13  1  0  0  0  0
 10 14  2  0  0  0  0
 12 15  1  0  0  0  0
 12 18  1  0  0  0  0
 13 16  2  0  0  0  0
 13 17  1  0  0  0  0
 16 20  1  0  0  0  0
 17 21  2  0  0  0  0
 18 22  3  0  0  0  0
 19 20  2  0  0  0  0
 19 21  1  0  0  0  0
 22 23  1  0  0  0  0
 23 26  1  0  0  0  0
 23 27  2  0  0  0  0
 25 28  2  0  0  0  0
 25 29  1  0  0  0  0
 27 31  1  0  0  0  0
 28 30  1  0  0  0  0
 29 32  2  0  0  0  0
 30 33  2  0  0  0  0
 30 35  1  0  0  0  0
 31 34  2  0  0  0  0
 32 33  1  0  0  0  0
M  END
> <Value>
5.899998417198648

> <Relation>
<

> <SourceURI>
mol:CHEMBL1971947

$$$$

Generated by Molecular Materials Informatics

 32 35  0  0  0  0  0  0  0  0999 V2000
    0.8093    7.8730    0.0000 C   0  0  0  0  0  0  0  0  0  0  0  0
    2.1082    8.6230    0.0000 C   0  0  0  0  0  0  0  0  0  0  0  0
    3.4073    7.8730    0.0000 C   0  0  0  0  0  0  0  0  0  0  0  0
    3.4073    6.3730    0.0000 N   0  0  0  0  0  0  0  0  0  0  0  0
    2.1082    5.6230    0.0000 C   0  0  0  0  0  0  0  0  0  0  0  0
    0.8093    6.3730    0.0000 C   0  0  0  0  0  0  0  0  0  0  0  0
    2.1082    4.1230    0.0000 N   0  0  0  0  0  0  0  0  0  0  0  0
    0.8093    3.3730    0.0000 C   0  0  0  0  0  0  0  0  0  0  0  0
    0.8093    1.8730    0.0000 C   0  0  0  0  0  0  0  0  0  0  0  0
   -0.4898    1.1230    0.0000 N   0  0  0  0  0  0  0  0  0  0  0  0
   -0.4898   -0.3770    0.0000 C   0  0  0  0  0  0  0  0  0  0  0  0
   -1.7889   -1.1270    0.0000 N   0  0  0  0  0  0  0  0  0  0  0  0
    0.8093   -1.1270    0.0000 N   0  0  0  0  0  0  0  0  0  0  0  0
    0.8093   -2.6270    0.0000 C   0  0  0  0  0  0  0  0  0  0  0  0
   -0.4898   -3.3770    0.0000 C   0  0  0  0  0  0  0  0  0  0  0  0
   -1.7889   -2.6270    0.0000 C   0  0  0  0  0  0  0  0  0  0  0  0
   -3.0880   -3.3770    0.0000 C   0  0  0  0  0  0  0  0  0  0  0  0
   -0.4898   -4.8770    0.0000 C   0  0  0  0  0  0  0  0  0  0  0  0
    0.7236   -5.7588    0.0000 N   0  0  0  0  0  0  0  0  0  0  0  0
    0.2602   -7.1854    0.0000 C   0  0  0  0  0  0  0  0  0  0  0  0
   -1.2398   -7.1854    0.0000 C   0  0  0  0  0  0  0  0  0  0  0  0
   -1.7034   -5.7588    0.0000 N   0  0  0  0  0  0  0  0  0  0  0  0
   -5.6860   -3.3770    0.0000 C   0  0  0  0  0  0  0  0  0  0  0  0
   -4.3869   -2.6270    0.0000 C   0  0  0  0  0  0  0  0  0  0  0  0
   -3.0880   -4.8770    0.0000 C   0  0  0  0  0  0  0  0  0  0  0  0
   -4.3869   -5.6270    0.0000 C   0  0  0  0  0  0  0  0  0  0  0  0
   -5.6860   -4.8770    0.0000 C   0  0  0  0  0  0  0  0  0  0  0  0
   -4.3869   -1.1270    0.0000 Cl  0  0  0  0  0  0  0  0  0  0  0  0
   -6.9851   -5.6270    0.0000 Cl  0  0  0  0  0  0  0  0  0  0  0  0
   -2.1214   -8.3988    0.0000 C   0  0  0  0  0  0  0  0  0  0  0  0
    2.1082   10.1230    0.0000 C   0  0  0  0  0  0  0  0  0  0  0  0
    2.1082   11.6230    0.0000 N   0  0  0  0  0  0  0  0  0  0  0  0
  1  2  2  0  0  0  0
  1  6  1  0  0  0  0
  2  3  1  0  0  0  0
  3  4  2  0  0  0  0
  4  5  1  0  0  0  0
  5  6  2  0  0  0  0
  5  7  1  0  0  0  0
  7  8  1  0  0  0  0
  8  9  1  0  0  0  0
  9 10  1  0  0  0  0
 10 11  1  0  0  0  0
 12 11  2  0  0  0  0
 11 13  1  0  0  0  0
 12 16  1  0  0  0  0
 13 14  2  0  0  0  0
 14 15  1  0  0  0  0
 15 16  2  0  0  0  0
 16 17  1  0  0  0  0
 15 18  1  0  0  0  0
 18 19  1  0  0  0  0
 18 22  2  0  0  0  0
 19 20  1  0  0  0  0
 20 21  2  0  0  0  0
 21 22  1  0  0  0  0
 24 17  2  0  0  0  0
 17 25  1  0  0  0  0
 23 24  1  0  0  0  0
 23 27  2  0  0  0  0
 25 26  2  0  0  0  0
 26 27  1  0  0  0  0
 24 28  1  0  0  0  0
 27 29  1  0  0  0  0
 21 30  1  0  0  0  0
  2 31  1  0  0  0  0
 31 32  3  0  0  0  0
M  END
> <Value>
5.899998417198648

> <Relation>
<

> <SourceURI>
mol:CHEMBL412142

$$$$

Generated by Molecular Materials Informatics

 39 43  0  0  0  0  0  0  0  0999 V2000
    0.1312   -1.7466    0.0000 C   0  0  0  0  0  0  0  0  0  0  0  0
   -1.1679   -0.9966    0.0000 O   0  0  0  0  0  0  0  0  0  0  0  0
    1.4301   -0.9966    0.0000 N   0  0  0  0  0  0  0  0  0  0  0  0
    1.4301    0.5034    0.0000 C   0  0  0  0  0  0  0  0  0  0  0  0
    2.7292    1.2534    0.0000 C   0  0  0  0  0  0  0  0  0  0  0  0
    2.7292    2.7534    0.0000 C   0  0  0  0  0  0  0  0  0  0  0  0
    1.4301    3.5034    0.0000 C   0  0  0  0  0  0  0  0  0  0  0  0
    4.0283    0.5034    0.0000 C   0  0  0  0  0  0  0  0  0  0  0  0
    5.3272    1.2534    0.0000 C   0  0  0  0  0  0  0  0  0  0  0  0
    5.3272    2.7534    0.0000 C   0  0  0  0  0  0  0  0  0  0  0  0
    4.0283    3.5034    0.0000 C   0  0  0  0  0  0  0  0  0  0  0  0
    0.1312    2.7534    0.0000 C   0  0  0  0  0  0  0  0  0  0  0  0
    0.1312    1.2534    0.0000 C   0  0  0  0  0  0  0  0  0  0  0  0
    0.1312   -3.2466    0.0000 N   0  0  0  0  0  0  0  0  0  0  0  0
   -1.1679   -3.9966    0.0000 C   0  0  0  0  0  0  0  0  0  0  0  0
   -2.5383   -3.3864    0.0000 C   0  0  0  0  0  0  0  0  0  0  0  0
   -3.5419   -4.5011    0.0000 C   0  0  0  0  0  0  0  0  0  0  0  0
   -2.7919   -5.8002    0.0000 N   0  0  0  0  0  0  0  0  0  0  0  0
   -1.3248   -5.4882    0.0000 N   0  0  0  0  0  0  0  0  0  0  0  0
   -0.2101   -6.4920    0.0000 C   0  0  0  0  0  0  0  0  0  0  0  0
   -6.5256   -4.1875    0.0000 C   0  0  0  0  0  0  0  0  0  0  0  0
   -5.1905   -5.8360    0.0000 C   0  0  0  0  0  0  0  0  0  0  0  0
   -4.8770   -2.8526    0.0000 C   0  0  0  0  0  0  0  0  0  0  0  0
   -5.0337   -4.3444    0.0000 C   0  0  0  0  0  0  0  0  0  0  0  0
    1.2166   -6.0284    0.0000 C   0  0  0  0  0  0  0  0  0  0  0  0
    2.3313   -7.0322    0.0000 C   0  0  0  0  0  0  0  0  0  0  0  0
    2.0193   -8.4993    0.0000 C   0  0  0  0  0  0  0  0  0  0  0  0
    0.5928   -8.9629    0.0000 C   0  0  0  0  0  0  0  0  0  0  0  0
   -0.5219   -7.9591    0.0000 C   0  0  0  0  0  0  0  0  0  0  0  0
    3.1341   -9.5031    0.0000 C   0  0  0  0  0  0  0  0  0  0  0  0
    1.4301    5.0034    0.0000 O   0  0  0  0  0  0  0  0  0  0  0  0
    0.1312    5.7534    0.0000 C   0  0  0  0  0  0  0  0  0  0  0  0
    0.1312    7.2534    0.0000 C   0  0  0  0  0  0  0  0  0  0  0  0
    1.4301    8.0034    0.0000 N   0  0  0  0  0  0  0  0  0  0  0  0
    2.7292    7.2534    0.0000 C   0  0  0  0  0  0  0  0  0  0  0  0
    4.0283    8.0034    0.0000 C   0  0  0  0  0  0  0  0  0  0  0  0
    4.0283    9.5034    0.0000 O   0  0  0  0  0  0  0  0  0  0  0  0
    2.7292   10.2534    0.0000 C   0  0  0  0  0  0  0  0  0  0  0  0
    1.4301    9.5034    0.0000 C   0  0  0  0  0  0  0  0  0  0  0  0
  1  2  2  0  0  0  0
  1  3  1  0  0  0  0
  1 14  1  0  0  0  0
  4  3  1  0  0  0  0
  4  5  2  0  0  0  0
  4 13  1  0  0  0  0
  5  6  1  0  0  0  0
  8  5  1  0  0  0  0
  6  7  2  0  0  0  0
 11  6  1  0  0  0  0
  7 12  1  0  0  0  0
  7 31  1  0  0  0  0
  8  9  2  0  0  0  0
  9 10  1  0  0  0  0
 10 11  2  0  0  0  0
 12 13  2  0  0  0  0
 15 14  1  0  0  0  0
 15 16  2  0  0  0  0
 15 19  1  0  0  0  0
 17 16  1  0  0  0  0
 17 18  2  0  0  0  0
 17 24  1  0  0  0  0
 19 18  1  0  0  0  0
 20 19  1  0  0  0  0
 20 25  2  0  0  0  0
 20 29  1  0  0  0  0
 24 21  1  0  0  0  0
 24 22  1  0  0  0  0
 24 23  1  0  0  0  0
 25 26  1  0  0  0  0
 26 27  2  0  0  0  0
 27 28  1  0  0  0  0
 27 30  1  0  0  0  0
 28 29  2  0  0  0  0
 32 31  1  0  0  0  0
 32 33  1  0  0  0  0
 33 34  1  0  0  0  0
 35 34  1  0  0  0  0
 39 34  1  0  0  0  0
 35 36  1  0  0  0  0
 36 37  1  0  0  0  0
 38 37  1  0  0  0  0
 38 39  1  0  0  0  0
M  END
> <Value>
5.300000202445418

> <Relation>
<

> <SourceURI>
mol:CHEMBL103667

$$$$

Generated by Molecular Materials Informatics

 13 14  0  0  0  0  0  0  0  0999 V2000
    1.2578   -1.1028    0.0000 S   0  0  0  0  0  0  0  0  0  0  0  0
    4.3896    1.4099    0.0000 O   0  0  0  0  0  0  0  0  0  0  0  0
   -1.5954    1.3242    0.0000 N   0  0  0  0  0  0  0  0  0  0  0  0
   -1.5954   -1.1028    0.0000 N   0  0  0  0  0  0  0  0  0  0  0  0
   -3.9771    0.1107    0.0000 N   0  0  0  0  0  0  0  0  0  0  0  0
    4.3896   -1.1884    0.0000 N   0  0  0  0  0  0  0  0  0  0  0  0
   -0.1688    0.8608    0.0000 C   0  0  0  0  0  0  0  0  0  0  0  0
   -0.1688   -0.6393    0.0000 C   0  0  0  0  0  0  0  0  0  0  0  0
    2.1395    0.1107    0.0000 C   0  0  0  0  0  0  0  0  0  0  0  0
   -2.4770    0.1107    0.0000 C   0  0  0  0  0  0  0  0  0  0  0  0
    1.2578    1.3242    0.0000 C   0  0  0  0  0  0  0  0  0  0  0  0
    3.6396    0.1107    0.0000 C   0  0  0  0  0  0  0  0  0  0  0  0
   -2.0590    2.7510    0.0000 C   0  0  0  0  0  0  0  0  0  0  0  0
  1  8  1  0  0  0  0
  1  9  1  0  0  0  0
  2 12  2  0  0  0  0
  3  7  1  0  0  0  0
  3 10  1  0  0  0  0
  3 13  1  0  0  0  0
  4  8  1  0  0  0  0
  4 10  2  0  0  0  0
  5 10  1  0  0  0  0
  6 12  1  0  0  0  0
  7  8  2  0  0  0  0
  7 11  1  0  0  0  0
  9 11  2  0  0  0  0
  9 12  1  0  0  0  0
M  END
> <Value>
5.0

> <Relation>
=

> <SourceURI>
mol:CHEMBL2002802

$$$$

Generated by Molecular Materials Informatics

 25 29  0  0  0  0  0  0  0  0999 V2000
    1.9188   -1.8328    0.0000 S   0  0  0  0  0  0  0  0  0  0  0  0
   -0.4628   -0.6194    0.0000 N   0  0  0  0  0  0  0  0  0  0  0  0
   -1.8894   -2.5828    0.0000 N   0  0  0  0  0  0  0  0  0  0  0  0
   -0.4628   -3.0463    0.0000 N   0  0  0  0  0  0  0  0  0  0  0  0
    6.4772   -3.8819    0.0000 N   0  0  0  0  0  0  0  0  0  0  0  0
    5.0505   -1.9183    0.0000 N   0  0  0  0  0  0  0  0  0  0  0  0
   -0.1510    0.8479    0.0000 C   0  0  0  0  0  0  0  0  0  0  0  0
   -1.8894   -1.0828    0.0000 C   0  0  0  0  0  0  0  0  0  0  0  0
    0.4188   -1.8328    0.0000 C   0  0  0  0  0  0  0  0  0  0  0  0
   -1.2657    1.8517    0.0000 C   0  0  0  0  0  0  0  0  0  0  0  0
   -2.6923    1.3881    0.0000 C   0  0  0  0  0  0  0  0  0  0  0  0
   -3.0041   -0.0792    0.0000 C   0  0  0  0  0  0  0  0  0  0  0  0
    1.2756    1.3115    0.0000 C   0  0  0  0  0  0  0  0  0  0  0  0
   -0.9539    3.3188    0.0000 C   0  0  0  0  0  0  0  0  0  0  0  0
    4.1688   -3.1319    0.0000 C   0  0  0  0  0  0  0  0  0  0  0  0
    6.4772   -2.3819    0.0000 C   0  0  0  0  0  0  0  0  0  0  0  0
    2.6688   -3.1319    0.0000 C   0  0  0  0  0  0  0  0  0  0  0  0
    5.0505   -4.3454    0.0000 C   0  0  0  0  0  0  0  0  0  0  0  0
    1.5876    2.7786    0.0000 C   0  0  0  0  0  0  0  0  0  0  0  0
    0.4728    3.7824    0.0000 C   0  0  0  0  0  0  0  0  0  0  0  0
   -3.8070    2.3917    0.0000 C   0  0  0  0  0  0  0  0  0  0  0  0
    7.7761   -4.6319    0.0000 C   0  0  0  0  0  0  0  0  0  0  0  0
    7.7761   -1.6319    0.0000 C   0  0  0  0  0  0  0  0  0  0  0  0
    9.0752   -3.8819    0.0000 C   0  0  0  0  0  0  0  0  0  0  0  0
    9.0752   -2.3819    0.0000 C   0  0  0  0  0  0  0  0  0  0  0  0
  1  9  1  0  0  0  0
  1 17  1  0  0  0  0
  2  7  1  0  0  0  0
  2  8  1  0  0  0  0
  2  9  1  0  0  0  0
  3  4  1  0  0  0  0
  3  8  2  0  0  0  0
  4  9  2  0  0  0  0
  5 16  1  0  0  0  0
  5 18  1  0  0  0  0
  5 22  1  0  0  0  0
  6 15  1  0  0  0  0
  6 16  2  0  0  0  0
  7 10  1  0  0  0  0
  7 13  2  0  0  0  0
  8 12  1  0  0  0  0
 10 11  1  0  0  0  0
 10 14  2  0  0  0  0
 11 12  2  0  0  0  0
 11 21  1  0  0  0  0
 13 19  1  0  0  0  0
 14 20  1  0  0  0  0
 15 17  1  0  0  0  0
 15 18  2  0  0  0  0
 16 23  1  0  0  0  0
 19 20  2  0  0  0  0
 22 24  2  0  0  0  0
 23 25  2  0  0  0  0
 24 25  1  0  0  0  0
M  END
> <Value>
6.299997602857746

> <Relation>
=

> <SourceURI>
mol:CHEMBL1980704

$$$$

Generated by Molecular Materials Informatics

 24 26  0  0  0  0  0  0  0  0999 V2000
    2.0889   -1.9066    0.0000 Cl  0  0  0  0  0  0  0  0  0  0  0  0
    4.6869   -0.4066    0.0000 Cl  0  0  0  0  0  0  0  0  0  0  0  0
   -1.9507   -8.3679    0.0000 Cl  0  0  0  0  0  0  0  0  0  0  0  0
   -0.6367    2.3068    0.0000 S   0  0  0  0  0  0  0  0  0  0  0  0
   -3.7683   -0.2057    0.0000 O   0  0  0  0  0  0  0  0  0  0  0  0
    1.3708   -2.3497    0.0000 O   0  0  0  0  0  0  0  0  0  0  0  0
   -1.1002   -1.5468    0.0000 N   0  0  0  0  0  0  0  0  0  0  0  0
   -3.7683    2.3923    0.0000 N   0  0  0  0  0  0  0  0  0  0  0  0
    0.7898    0.3434    0.0000 C   0  0  0  0  0  0  0  0  0  0  0  0
   -0.6367   -0.1202    0.0000 C   0  0  0  0  0  0  0  0  0  0  0  0
    0.7898    1.8434    0.0000 C   0  0  0  0  0  0  0  0  0  0  0  0
   -1.5183    1.0934    0.0000 C   0  0  0  0  0  0  0  0  0  0  0  0
    2.0889   -0.4066    0.0000 C   0  0  0  0  0  0  0  0  0  0  0  0
    3.3880    0.3434    0.0000 C   0  0  0  0  0  0  0  0  0  0  0  0
    2.0889    2.5934    0.0000 C   0  0  0  0  0  0  0  0  0  0  0  0
   -3.0183    1.0934    0.0000 C   0  0  0  0  0  0  0  0  0  0  0  0
    3.3880    1.8434    0.0000 C   0  0  0  0  0  0  0  0  0  0  0  0
   -0.0965   -2.6615    0.0000 C   0  0  0  0  0  0  0  0  0  0  0  0
   -0.5602   -4.0881    0.0000 C   0  0  0  0  0  0  0  0  0  0  0  0
    0.4437   -5.2028    0.0000 C   0  0  0  0  0  0  0  0  0  0  0  0
   -2.0272   -4.3999    0.0000 C   0  0  0  0  0  0  0  0  0  0  0  0
   -0.0200   -6.6293    0.0000 C   0  0  0  0  0  0  0  0  0  0  0  0
   -2.4909   -5.8266    0.0000 C   0  0  0  0  0  0  0  0  0  0  0  0
   -1.4871   -6.9413    0.0000 C   0  0  0  0  0  0  0  0  0  0  0  0
  1 13  1  0  0  0  0
  2 14  1  0  0  0  0
  3 24  1  0  0  0  0
  4 11  1  0  0  0  0
  4 12  1  0  0  0  0
  5 16  2  0  0  0  0
  6 18  2  0  0  0  0
  7 10  1  0  0  0  0
  7 18  1  0  0  0  0
  8 16  1  0  0  0  0
  9 10  1  0  0  0  0
  9 11  1  0  0  0  0
  9 13  2  0  0  0  0
 10 12  2  0  0  0  0
 11 15  2  0  0  0  0
 12 16  1  0  0  0  0
 13 14  1  0  0  0  0
 14 17  2  0  0  0  0
 15 17  1  0  0  0  0
 18 19  1  0  0  0  0
 19 20  2  0  0  0  0
 19 21  1  0  0  0  0
 20 22  1  0  0  0  0
 21 23  2  0  0  0  0
 22 24  2  0  0  0  0
 23 24  1  0  0  0  0
M  END
> <Value>
5.899998417198648

> <Relation>
<

> <SourceURI>
mol:CHEMBL2003271

$$$$

Generated by Molecular Materials Informatics

 23 27  0  0  0  0  0  0  0  0999 V2000
    0.0830   -2.5867    0.0000 S   0  0  0  0  0  0  0  0  0  0  0  0
    5.3343   -3.5080    0.0000 O   0  0  0  0  0  0  0  0  0  0  0  0
    4.3138   -1.1187    0.0000 N   0  0  0  0  0  0  0  0  0  0  0  0
    3.5990    1.2007    0.0000 N   0  0  0  0  0  0  0  0  0  0  0  0
    2.7549   -3.1971    0.0000 N   0  0  0  0  0  0  0  0  0  0  0  0
    5.5405   -0.2556    0.0000 N   0  0  0  0  0  0  0  0  0  0  0  0
    7.7989    4.7778    0.0000 N   0  0  0  0  0  0  0  0  0  0  0  0
    1.7343   -0.8080    0.0000 C   0  0  0  0  0  0  0  0  0  0  0  0
    3.1138   -0.2187    0.0000 C   0  0  0  0  0  0  0  0  0  0  0  0
    1.5549   -2.2971    0.0000 C   0  0  0  0  0  0  0  0  0  0  0  0
    0.3734   -0.1771    0.0000 C   0  0  0  0  0  0  0  0  0  0  0  0
   -0.6470   -1.2764    0.0000 C   0  0  0  0  0  0  0  0  0  0  0  0
    4.1343   -2.6080    0.0000 C   0  0  0  0  0  0  0  0  0  0  0  0
    5.0989    1.1778    0.0000 C   0  0  0  0  0  0  0  0  0  0  0  0
   -0.0682    1.2564    0.0000 C   0  0  0  0  0  0  0  0  0  0  0  0
    5.9989    2.3778    0.0000 C   0  0  0  0  0  0  0  0  0  0  0  0
   -2.1093   -0.9422    0.0000 C   0  0  0  0  0  0  0  0  0  0  0  0
   -1.5306    1.5906    0.0000 C   0  0  0  0  0  0  0  0  0  0  0  0
   -2.5511    0.4913    0.0000 C   0  0  0  0  0  0  0  0  0  0  0  0
    7.4880    2.1984    0.0000 C   0  0  0  0  0  0  0  0  0  0  0  0
    5.4096    3.7573    0.0000 C   0  0  0  0  0  0  0  0  0  0  0  0
    8.3881    3.3984    0.0000 C   0  0  0  0  0  0  0  0  0  0  0  0
    6.3096    4.9573    0.0000 C   0  0  0  0  0  0  0  0  0  0  0  0
  1 10  1  0  0  0  0
  1 12  1  0  0  0  0
  2 13  2  0  0  0  0
  3  6  1  0  0  0  0
  3  9  1  0  0  0  0
  3 13  1  0  0  0  0
  4  9  2  0  0  0  0
  4 14  1  0  0  0  0
  5 10  1  0  0  0  0
  5 13  1  0  0  0  0
  6 14  2  0  0  0  0
  7 22  2  0  0  0  0
  7 23  1  0  0  0  0
  8  9  1  0  0  0  0
  8 10  2  0  0  0  0
  8 11  1  0  0  0  0
 11 12  2  0  0  0  0
 11 15  1  0  0  0  0
 12 17  1  0  0  0  0
 14 16  1  0  0  0  0
 15 18  1  0  0  0  0
 16 20  2  0  0  0  0
 16 21  1  0  0  0  0
 17 19  1  0  0  0  0
 18 19  1  0  0  0  0
 20 22  1  0  0  0  0
 21 23  2  0  0  0  0
M  END
> <Value>
7.400007822415902

> <Relation>
=

> <SourceURI>
mol:CHEMBL1966808

$$$$

Generated by Molecular Materials Informatics

 35 38  0  0  0  0  0  0  0  0999 V2000
   11.4815   -3.6880    0.0000 N   0  0  0  0  0  0  0  0  0  0  0  0
   12.7893   -1.4203    0.0000 C   0  0  0  0  0  0  0  0  0  0  0  0
   10.1857   -2.9141    0.0000 C   0  0  0  0  0  0  0  0  0  0  0  0
   12.7893   -2.9321    0.0000 C   0  0  0  0  0  0  0  0  0  0  0  0
    8.8899   -3.6880    0.0000 N   0  0  0  0  0  0  0  0  0  0  0  0
   10.1857   -1.4203    0.0000 C   0  0  0  0  0  0  0  0  0  0  0  0
   11.4815   -0.6644    0.0000 C   0  0  0  0  0  0  0  0  0  0  0  0
   14.0911   -0.6824    0.0000 C   0  0  0  0  0  0  0  0  0  0  0  0
    7.5941   -2.9321    0.0000 C   0  0  0  0  0  0  0  0  0  0  0  0
    7.5941   -1.4323    0.0000 N   0  0  0  0  0  0  0  0  0  0  0  0
    8.8899   -0.6764    0.0000 C   0  0  0  0  0  0  0  0  0  0  0  0
    6.2922   -3.6880    0.0000 N   0  0  0  0  0  0  0  0  0  0  0  0
   14.0851   -3.6880    0.0000 O   0  0  0  0  0  0  0  0  0  0  0  0
   14.0911    0.8114    0.0000 C   0  0  0  0  0  0  0  0  0  0  0  0
   15.3869   -1.4383    0.0000 C   0  0  0  0  0  0  0  0  0  0  0  0
   11.4815   -5.1818    0.0000 C   0  0  0  0  0  0  0  0  0  0  0  0
    6.2922   -5.1818    0.0000 C   0  0  0  0  0  0  0  0  0  0  0  0
   12.7893    1.5553    0.0000 Cl  0  0  0  0  0  0  0  0  0  0  0  0
   15.3809   -2.9440    0.0000 Cl  0  0  0  0  0  0  0  0  0  0  0  0
    3.6886  -12.6806    0.0000 N   0  0  0  0  0  0  0  0  0  0  0  0
    6.2802   -8.1693    0.0000 C   0  0  0  0  0  0  0  0  0  0  0  0
    7.5880   -5.9197    0.0000 C   0  0  0  0  0  0  0  0  0  0  0  0
    4.9844   -5.9197    0.0000 C   0  0  0  0  0  0  0  0  0  0  0  0
    4.9844   -7.4254    0.0000 C   0  0  0  0  0  0  0  0  0  0  0  0
    7.5941   -7.4134    0.0000 C   0  0  0  0  0  0  0  0  0  0  0  0
    6.2802   -9.6751    0.0000 O   0  0  0  0  0  0  0  0  0  0  0  0
    4.9844  -10.4310    0.0000 C   0  0  0  0  0  0  0  0  0  0  0  0
   16.6947    0.8114    0.0000 C   0  0  0  0  0  0  0  0  0  0  0  0
   16.6828   -0.7004    0.0000 C   0  0  0  0  0  0  0  0  0  0  0  0
   15.3869    1.5553    0.0000 C   0  0  0  0  0  0  0  0  0  0  0  0
    4.9844  -11.9308    0.0000 C   0  0  0  0  0  0  0  0  0  0  0  0
    3.6886  -14.1805    0.0000 C   0  0  0  0  0  0  0  0  0  0  0  0
    2.3928  -11.9308    0.0000 C   0  0  0  0  0  0  0  0  0  0  0  0
    1.0970  -12.6806    0.0000 C   0  0  0  0  0  0  0  0  0  0  0  0
    2.3928  -14.9303    0.0000 C   0  0  0  0  0  0  0  0  0  0  0  0
  2  4  1  0  0  0  0
  3  1  1  0  0  0  0
  4  1  1  0  0  0  0
  5  3  2  0  0  0  0
  6  3  1  0  0  0  0
  7  2  2  0  0  0  0
  8  2  1  0  0  0  0
  9  5  1  0  0  0  0
 10 11  1  0  0  0  0
 11  6  2  0  0  0  0
 12  9  1  0  0  0  0
 13  4  2  0  0  0  0
 14  8  1  0  0  0  0
 15  8  2  0  0  0  0
 16  1  1  0  0  0  0
 17 12  1  0  0  0  0
 18 14  1  0  0  0  0
 19 15  1  0  0  0  0
 20 31  1  0  0  0  0
 21 24  2  0  0  0  0
 22 17  1  0  0  0  0
 23 17  2  0  0  0  0
 24 23  1  0  0  0  0
 25 22  2  0  0  0  0
 26 21  1  0  0  0  0
 27 26  1  0  0  0  0
 28 29  2  0  0  0  0
 29 15  1  0  0  0  0
 30 14  2  0  0  0  0
 31 27  1  0  0  0  0
 32 20  1  0  0  0  0
 33 20  1  0  0  0  0
 34 33  1  0  0  0  0
 35 32  1  0  0  0  0
  7  6  1  0  0  0  0
 10  9  2  0  0  0  0
 30 28  1  0  0  0  0
 21 25  1  0  0  0  0
M  END
> <Value>
5.300000202445418

> <Relation>
<

> <SourceURI>
mol:CHEMBL49120

$$$$

Generated by Molecular Materials Informatics

 23 25  0  0  0  0  0  0  0  0999 V2000
    3.4742    2.4000    0.0000 F   0  0  0  0  0  0  0  0  0  0  0  0
    0.8762   -2.1000    0.0000 O   0  0  0  0  0  0  0  0  0  0  0  0
   -2.7311   -0.6000    0.0000 N   0  0  0  0  0  0  0  0  0  0  0  0
   -1.8494   -1.8135    0.0000 N   0  0  0  0  0  0  0  0  0  0  0  0
    3.4742   -2.1000    0.0000 N   0  0  0  0  0  0  0  0  0  0  0  0
    4.7733    1.6500    0.0000 N   0  0  0  0  0  0  0  0  0  0  0  0
   -0.4229    0.1500    0.0000 C   0  0  0  0  0  0  0  0  0  0  0  0
    0.8762    0.9000    0.0000 C   0  0  0  0  0  0  0  0  0  0  0  0
   -1.8494    0.6135    0.0000 C   0  0  0  0  0  0  0  0  0  0  0  0
   -0.4229   -1.3500    0.0000 C   0  0  0  0  0  0  0  0  0  0  0  0
    2.1751    0.1500    0.0000 C   0  0  0  0  0  0  0  0  0  0  0  0
    0.8762    2.4000    0.0000 C   0  0  0  0  0  0  0  0  0  0  0  0
   -2.3131    2.0402    0.0000 C   0  0  0  0  0  0  0  0  0  0  0  0
    2.1751   -1.3500    0.0000 C   0  0  0  0  0  0  0  0  0  0  0  0
    2.1751    3.1500    0.0000 C   0  0  0  0  0  0  0  0  0  0  0  0
    3.4742    0.9000    0.0000 C   0  0  0  0  0  0  0  0  0  0  0  0
   -0.4229    3.1500    0.0000 C   0  0  0  0  0  0  0  0  0  0  0  0
   -2.7765    3.4667    0.0000 C   0  0  0  0  0  0  0  0  0  0  0  0
   -3.7396    1.5765    0.0000 C   0  0  0  0  0  0  0  0  0  0  0  0
   -0.8863    2.5036    0.0000 C   0  0  0  0  0  0  0  0  0  0  0  0
    2.1751    4.6500    0.0000 C   0  0  0  0  0  0  0  0  0  0  0  0
   -0.4229    4.6500    0.0000 C   0  0  0  0  0  0  0  0  0  0  0  0
    0.8762    5.4000    0.0000 C   0  0  0  0  0  0  0  0  0  0  0  0
  1 15  1  0  0  0  0
  2 10  1  0  0  0  0
  2 14  1  0  0  0  0
  3  4  1  0  0  0  0
  3  9  2  0  0  0  0
  4 10  1  0  0  0  0
  5 14  1  0  0  0  0
  6 16  3  0  0  0  0
  7  8  1  0  0  0  0
  7  9  1  0  0  0  0
  7 10  2  0  0  0  0
  8 11  1  0  0  0  0
  8 12  1  0  0  0  0
  9 13  1  0  0  0  0
 11 14  2  0  0  0  0
 11 16  1  0  0  0  0
 12 15  1  0  0  0  0
 12 17  2  0  0  0  0
 13 18  1  0  0  0  0
 13 19  1  0  0  0  0
 13 20  1  0  0  0  0
 15 21  2  0  0  0  0
 17 22  1  0  0  0  0
 21 23  1  0  0  0  0
 22 23  2  0  0  0  0
M  END
> <Value>
5.899998417198648

> <Relation>
<

> <SourceURI>
mol:CHEMBL2004447

$$$$

Generated by Molecular Materials Informatics

 24 26  0  0  0  0  0  0  0  0999 V2000
   -6.2030    3.9375    0.0000 F   0  0  0  0  0  0  0  0  0  0  0  0
    4.1894   -3.5625    0.0000 O   0  0  0  0  0  0  0  0  0  0  0  0
    5.4885   -5.8125    0.0000 O   0  0  0  0  0  0  0  0  0  0  0  0
    1.5914   -3.5625    0.0000 N   0  0  0  0  0  0  0  0  0  0  0  0
    0.2923   -1.3125    0.0000 N   0  0  0  0  0  0  0  0  0  0  0  0
   -1.0068    0.9375    0.0000 N   0  0  0  0  0  0  0  0  0  0  0  0
   -1.0068   -3.5625    0.0000 N   0  0  0  0  0  0  0  0  0  0  0  0
   -2.3057   -1.3125    0.0000 N   0  0  0  0  0  0  0  0  0  0  0  0
    1.5914   -5.0625    0.0000 C   0  0  0  0  0  0  0  0  0  0  0  0
    0.2923   -2.8125    0.0000 C   0  0  0  0  0  0  0  0  0  0  0  0
    2.8903   -5.8125    0.0000 C   0  0  0  0  0  0  0  0  0  0  0  0
   -1.0068   -0.5625    0.0000 C   0  0  0  0  0  0  0  0  0  0  0  0
   -2.3057    1.6875    0.0000 C   0  0  0  0  0  0  0  0  0  0  0  0
    0.2923   -5.8125    0.0000 C   0  0  0  0  0  0  0  0  0  0  0  0
    4.1894   -5.0625    0.0000 C   0  0  0  0  0  0  0  0  0  0  0  0
    2.8903   -7.3125    0.0000 C   0  0  0  0  0  0  0  0  0  0  0  0
   -2.3057   -2.8125    0.0000 C   0  0  0  0  0  0  0  0  0  0  0  0
    0.2923   -7.3125    0.0000 C   0  0  0  0  0  0  0  0  0  0  0  0
    1.5914   -8.0625    0.0000 C   0  0  0  0  0  0  0  0  0  0  0  0
   -3.6048    0.9375    0.0000 C   0  0  0  0  0  0  0  0  0  0  0  0
   -2.3057    3.1875    0.0000 C   0  0  0  0  0  0  0  0  0  0  0  0
   -4.9039    3.1875    0.0000 C   0  0  0  0  0  0  0  0  0  0  0  0
   -4.9039    1.6875    0.0000 C   0  0  0  0  0  0  0  0  0  0  0  0
   -3.6048    3.9375    0.0000 C   0  0  0  0  0  0  0  0  0  0  0  0
  1 22  1  0  0  0  0
  2 15  2  0  0  0  0
  3 15  1  0  0  0  0
  4  9  1  0  0  0  0
  4 10  1  0  0  0  0
  5 10  1  0  0  0  0
  5 12  2  0  0  0  0
  6 12  1  0  0  0  0
  6 13  1  0  0  0  0
  7 10  2  0  0  0  0
  7 17  1  0  0  0  0
  8 12  1  0  0  0  0
  8 17  2  0  0  0  0
  9 11  1  0  0  0  0
  9 14  2  0  0  0  0
 11 15  1  0  0  0  0
 11 16  2  0  0  0  0
 13 20  2  0  0  0  0
 13 21  1  0  0  0  0
 14 18  1  0  0  0  0
 16 19  1  0  0  0  0
 18 19  2  0  0  0  0
 20 23  1  0  0  0  0
 21 24  2  0  0  0  0
 22 23  2  0  0  0  0
 22 24  1  0  0  0  0
M  END
> <Value>
6.199998172182031

> <Relation>
=

> <SourceURI>
mol:CHEMBL1992231

$$$$

Generated by Molecular Materials Informatics

 34 38  0  0  0  0  0  0  0  0999 V2000
   -8.1097   -0.5146    0.0000 F   0  0  0  0  0  0  0  0  0  0  0  0
   -6.5824   -1.9868    0.0000 F   0  0  0  0  0  0  0  0  0  0  0  0
   -6.6375    1.0129    0.0000 F   0  0  0  0  0  0  0  0  0  0  0  0
    4.4388    1.7222    0.0000 O   0  0  0  0  0  0  0  0  0  0  0  0
    0.2748    5.1735    0.0000 O   0  0  0  0  0  0  0  0  0  0  0  0
    3.3098   -0.6179    0.0000 N   0  0  0  0  0  0  0  0  0  0  0  0
   -0.6108   -0.3766    0.0000 N   0  0  0  0  0  0  0  0  0  0  0  0
   -2.8845    0.8809    0.0000 N   0  0  0  0  0  0  0  0  0  0  0  0
   -2.8367   -1.7168    0.0000 N   0  0  0  0  0  0  0  0  0  0  0  0
   -5.1580    2.1384    0.0000 N   0  0  0  0  0  0  0  0  0  0  0  0
    1.7367    3.0258    0.0000 N   0  0  0  0  0  0  0  0  0  0  0  0
    3.6007   -2.1005    0.0000 C   0  0  0  0  0  0  0  0  0  0  0  0
    3.1824   -3.4103    0.0000 C   0  0  0  0  0  0  0  0  0  0  0  0
    2.4365   -2.9190    0.0000 C   0  0  0  0  0  0  0  0  0  0  0  0
    1.7105   -4.2316    0.0000 C   0  0  0  0  0  0  0  0  0  0  0  0
    5.0471   -2.9465    0.0000 C   0  0  0  0  0  0  0  0  0  0  0  0
    4.5106   -4.0836    0.0000 C   0  0  0  0  0  0  0  0  0  0  0  0
    1.6627   -1.6339    0.0000 C   0  0  0  0  0  0  0  0  0  0  0  0
    3.1987    0.8780    0.0000 C   0  0  0  0  0  0  0  0  0  0  0  0
    0.2108   -4.2592    0.0000 C   0  0  0  0  0  0  0  0  0  0  0  0
    0.1630   -1.6615    0.0000 C   0  0  0  0  0  0  0  0  0  0  0  0
   -0.5630   -2.9743    0.0000 C   0  0  0  0  0  0  0  0  0  0  0  0
   -5.1102   -0.4593    0.0000 C   0  0  0  0  0  0  0  0  0  0  0  0
   -2.1107   -0.4041    0.0000 C   0  0  0  0  0  0  0  0  0  0  0  0
   -4.3842    0.8533    0.0000 C   0  0  0  0  0  0  0  0  0  0  0  0
    1.8478    1.5298    0.0000 C   0  0  0  0  0  0  0  0  0  0  0  0
   -6.6101   -0.4870    0.0000 C   0  0  0  0  0  0  0  0  0  0  0  0
   -4.3364   -1.7444    0.0000 C   0  0  0  0  0  0  0  0  0  0  0  0
   -6.6579    2.1107    0.0000 C   0  0  0  0  0  0  0  0  0  0  0  0
   -7.6988    1.0307    0.0000 C   0  0  0  0  0  0  0  0  0  0  0  0
   -7.7379    3.1517    0.0000 C   0  0  0  0  0  0  0  0  0  0  0  0
   -8.7788    2.0716    0.0000 C   0  0  0  0  0  0  0  0  0  0  0  0
    0.3857    3.6777    0.0000 C   0  0  0  0  0  0  0  0  0  0  0  0
   -0.8543    2.8335    0.0000 C   0  0  0  0  0  0  0  0  0  0  0  0
  1 27  1  0  0  0  0
  2 27  1  0  0  0  0
  3 27  1  0  0  0  0
  4 19  2  0  0  0  0
  5 33  2  0  0  0  0
  6 12  1  0  0  0  0
  6 13  1  0  0  0  0
  6 19  1  0  0  0  0
  7 21  1  0  0  0  0
  7 24  1  0  0  0  0
  8 24  1  0  0  0  0
  8 25  2  0  0  0  0
  9 24  2  0  0  0  0
  9 28  1  0  0  0  0
 10 25  1  0  0  0  0
 10 29  1  0  0  0  0
 11 26  1  0  0  0  0
 11 33  1  0  0  0  0
 12 14  1  0  0  0  0
 12 16  1  0  0  0  0
 13 15  1  0  0  0  0
 13 17  1  0  0  0  0
 14 15  1  0  0  0  0
 14 18  2  0  0  0  0
 15 20  2  0  0  0  0
 16 17  1  0  0  0  0
 18 21  1  0  0  0  0
 19 26  1  0  0  0  0
 20 22  1  0  0  0  0
 21 22  2  0  0  0  0
 23 25  1  0  0  0  0
 23 27  1  0  0  0  0
 23 28  2  0  0  0  0
 29 30  1  0  0  0  0
 29 31  1  0  0  0  0
 30 32  1  0  0  0  0
 31 32  1  0  0  0  0
 33 34  1  0  0  0  0
M  END
> <Value>
6.599997654072044

> <Relation>
=

> <SourceURI>
mol:CHEMBL1983111

$$$$

Generated by Molecular Materials Informatics

 19 21  0  0  0  0  0  0  0  0999 V2000
    5.9936   -3.2848    0.0000 S   0  0  0  0  0  0  0  0  0  0  0  0
   -4.7234   -5.2312    0.0000 O   0  0  0  0  0  0  0  0  0  0  0  0
   -2.1255    0.7687    0.0000 N   0  0  0  0  0  0  0  0  0  0  0  0
   -3.4243   -1.4813    0.0000 N   0  0  0  0  0  0  0  0  0  0  0  0
    0.4727   -0.7313    0.0000 C   0  0  0  0  0  0  0  0  0  0  0  0
    0.4727    0.7687    0.0000 C   0  0  0  0  0  0  0  0  0  0  0  0
    3.0706   -0.7313    0.0000 C   0  0  0  0  0  0  0  0  0  0  0  0
    1.7715   -1.4813    0.0000 C   0  0  0  0  0  0  0  0  0  0  0  0
    4.3696   -1.4813    0.0000 C   0  0  0  0  0  0  0  0  0  0  0  0
   -0.8264   -1.4813    0.0000 C   0  0  0  0  0  0  0  0  0  0  0  0
   -2.1255   -0.7313    0.0000 C   0  0  0  0  0  0  0  0  0  0  0  0
    1.7715    1.5187    0.0000 C   0  0  0  0  0  0  0  0  0  0  0  0
    3.0706    0.7687    0.0000 C   0  0  0  0  0  0  0  0  0  0  0  0
   -0.8264    1.5187    0.0000 C   0  0  0  0  0  0  0  0  0  0  0  0
    4.5264   -2.9730    0.0000 C   0  0  0  0  0  0  0  0  0  0  0  0
    5.7400   -0.8711    0.0000 C   0  0  0  0  0  0  0  0  0  0  0  0
    6.7436   -1.9858    0.0000 C   0  0  0  0  0  0  0  0  0  0  0  0
   -3.4243   -2.9812    0.0000 C   0  0  0  0  0  0  0  0  0  0  0  0
   -4.7234   -3.7312    0.0000 C   0  0  0  0  0  0  0  0  0  0  0  0
  1 15  1  0  0  0  0
  1 17  1  0  0  0  0
  2 19  1  0  0  0  0
  3 11  1  0  0  0  0
  3 14  2  0  0  0  0
  4 11  1  0  0  0  0
  4 18  1  0  0  0  0
  5  6  1  0  0  0  0
  5  8  2  0  0  0  0
  5 10  1  0  0  0  0
  6 12  2  0  0  0  0
  6 14  1  0  0  0  0
  7  8  1  0  0  0  0
  7  9  1  0  0  0  0
  7 13  2  0  0  0  0
  9 15  2  0  0  0  0
  9 16  1  0  0  0  0
 10 11  2  0  0  0  0
 12 13  1  0  0  0  0
 16 17  2  0  0  0  0
 18 19  1  0  0  0  0
M  END
> <Value>
5.899998417198648

> <Relation>
<

> <SourceURI>
mol:CHEMBL1973860

$$$$

Generated by Molecular Materials Informatics

 22 25  0  0  0  0  0  0  0  0999 V2000
   -2.9703   -0.4979    0.0000 C   0  0  0  0  0  0  0  0  0  0  0  0
   -2.9726   -2.0010    0.0000 N   0  0  0  0  0  0  0  0  0  0  0  0
   -1.6776   -2.7510    0.0000 N   0  0  0  0  0  0  0  0  0  0  0  0
   -1.6813    0.2515    0.0000 C   0  0  0  0  0  0  0  0  0  0  0  0
   -0.3770   -0.4908    0.0000 C   0  0  0  0  0  0  0  0  0  0  0  0
   -0.3759   -2.0010    0.0000 C   0  0  0  0  0  0  0  0  0  0  0  0
    1.0606   -2.4668    0.0000 N   0  0  0  0  0  0  0  0  0  0  0  0
    1.9476   -1.2444    0.0000 N   0  0  0  0  0  0  0  0  0  0  0  0
    1.0589   -0.0233    0.0000 C   0  0  0  0  0  0  0  0  0  0  0  0
    1.5211    1.4020    0.0000 N   0  0  0  0  0  0  0  0  0  0  0  0
   -4.2682    0.2490    0.0000 C   0  0  0  0  0  0  0  0  0  0  0  0
   -4.2669    1.7493    0.0000 C   0  0  0  0  0  0  0  0  0  0  0  0
   -5.5637    2.4972    0.0000 C   0  0  0  0  0  0  0  0  0  0  0  0
   -6.8624    1.7469    0.0000 C   0  0  0  0  0  0  0  0  0  0  0  0
   -6.8562    0.2410    0.0000 C   0  0  0  0  0  0  0  0  0  0  0  0
   -5.5585   -0.5002    0.0000 C   0  0  0  0  0  0  0  0  0  0  0  0
   -1.6945    1.7464    0.0000 C   0  0  0  0  0  0  0  0  0  0  0  0
   -0.3974    2.5005    0.0000 C   0  0  0  0  0  0  0  0  0  0  0  0
   -0.4037    3.9973    0.0000 C   0  0  0  0  0  0  0  0  0  0  0  0
   -1.7058    4.7420    0.0000 C   0  0  0  0  0  0  0  0  0  0  0  0
   -3.0043    3.9788    0.0000 C   0  0  0  0  0  0  0  0  0  0  0  0
   -2.9914    2.4843    0.0000 C   0  0  0  0  0  0  0  0  0  0  0  0
  5  6  1  0  0  0  0
 11 12  2  0  0  0  0
  2  3  1  0  0  0  0
 12 13  1  0  0  0  0
  3  6  2  0  0  0  0
 13 14  2  0  0  0  0
  1  2  2  0  0  0  0
 14 15  1  0  0  0  0
  5  4  2  0  0  0  0
 15 16  2  0  0  0  0
 16 11  1  0  0  0  0
  1 11  1  0  0  0  0
  6  7  1  0  0  0  0
  7  8  1  0  0  0  0
 17 18  2  0  0  0  0
  8  9  2  0  0  0  0
 18 19  1  0  0  0  0
  9  5  1  0  0  0  0
 19 20  2  0  0  0  0
  4  1  1  0  0  0  0
 20 21  1  0  0  0  0
  9 10  1  0  0  0  0
 21 22  2  0  0  0  0
 22 17  1  0  0  0  0
  4 17  1  0  0  0  0
M  END
> <Value>
5.899998417198648

> <Relation>
<

> <SourceURI>
mol:CHEMBL260135

$$$$

Generated by Molecular Materials Informatics

 42 47  0  0  0  0  0  0  0  0999 V2000
    1.7654   -0.8175    0.0000 C   0  0  0  0  0  0  0  0  0  0  0  0
    0.7618    0.2973    0.0000 C   0  0  0  0  0  0  0  0  0  0  0  0
    1.2252    1.7238    0.0000 N   0  0  0  0  0  0  0  0  0  0  0  0
    0.3436    2.9373    0.0000 C   0  0  0  0  0  0  0  0  0  0  0  0
    1.2252    4.1509    0.0000 N   0  0  0  0  0  0  0  0  0  0  0  0
    2.6520    3.6873    0.0000 C   0  0  0  0  0  0  0  0  0  0  0  0
    3.9509    4.4373    0.0000 C   0  0  0  0  0  0  0  0  0  0  0  0
    5.2500    3.6873    0.0000 N   0  0  0  0  0  0  0  0  0  0  0  0
    5.2500    2.1873    0.0000 C   0  0  0  0  0  0  0  0  0  0  0  0
    6.5490    1.4373    0.0000 O   0  0  0  0  0  0  0  0  0  0  0  0
    7.8480    2.1873    0.0000 C   0  0  0  0  0  0  0  0  0  0  0  0
    7.8480    3.6873    0.0000 C   0  0  0  0  0  0  0  0  0  0  0  0
    9.1470    4.4373    0.0000 C   0  0  0  0  0  0  0  0  0  0  0  0
   10.4461    3.6873    0.0000 C   0  0  0  0  0  0  0  0  0  0  0  0
   10.4461    2.1873    0.0000 C   0  0  0  0  0  0  0  0  0  0  0  0
   11.7452    1.4373    0.0000 N   0  0  0  0  0  0  0  0  0  0  0  0
   13.0441    2.1873    0.0000 C   0  0  0  0  0  0  0  0  0  0  0  0
   13.0441    3.6873    0.0000 O   0  0  0  0  0  0  0  0  0  0  0  0
   14.3432    1.4373    0.0000 C   0  0  0  0  0  0  0  0  0  0  0  0
   15.6423    2.1873    0.0000 C   0  0  0  0  0  0  0  0  0  0  0  0
   16.9412    1.4373    0.0000 C   0  0  0  0  0  0  0  0  0  0  0  0
   16.9412   -0.0627    0.0000 C   0  0  0  0  0  0  0  0  0  0  0  0
   18.2403   -0.8127    0.0000 O   0  0  0  0  0  0  0  0  0  0  0  0
   18.2403   -2.3127    0.0000 C   0  0  0  0  0  0  0  0  0  0  0  0
   19.5394   -3.0627    0.0000 C   0  0  0  0  0  0  0  0  0  0  0  0
   19.5394   -4.5627    0.0000 N   0  0  0  0  0  0  0  0  0  0  0  0
   20.8385   -5.3127    0.0000 C   0  0  0  0  0  0  0  0  0  0  0  0
   20.8385   -6.8127    0.0000 C   0  0  0  0  0  0  0  0  0  0  0  0
   19.5394   -7.5627    0.0000 O   0  0  0  0  0  0  0  0  0  0  0  0
   18.2403   -6.8127    0.0000 C   0  0  0  0  0  0  0  0  0  0  0  0
   18.2403   -5.3127    0.0000 C   0  0  0  0  0  0  0  0  0  0  0  0
   15.6423   -0.8127    0.0000 C   0  0  0  0  0  0  0  0  0  0  0  0
   14.3432   -0.0627    0.0000 C   0  0  0  0  0  0  0  0  0  0  0  0
    9.1470    1.4373    0.0000 C   0  0  0  0  0  0  0  0  0  0  0  0
    3.9509    1.4373    0.0000 C   0  0  0  0  0  0  0  0  0  0  0  0
    2.6520    2.1873    0.0000 C   0  0  0  0  0  0  0  0  0  0  0  0
   -1.1564    2.9373    0.0000 C   0  0  0  0  0  0  0  0  0  0  0  0
   -2.0380    1.7238    0.0000 N   0  0  0  0  0  0  0  0  0  0  0  0
   -3.4646    2.1873    0.0000 O   0  0  0  0  0  0  0  0  0  0  0  0
   -3.4646    3.6873    0.0000 N   0  0  0  0  0  0  0  0  0  0  0  0
   -2.0380    4.1509    0.0000 C   0  0  0  0  0  0  0  0  0  0  0  0
   -1.5746    5.5774    0.0000 N   0  0  0  0  0  0  0  0  0  0  0  0
  1  2  1  0  0  0  0
  2  3  1  0  0  0  0
  3  4  1  0  0  0  0
  4  5  2  0  0  0  0
  5  6  1  0  0  0  0
  6  7  2  0  0  0  0
  7  8  1  0  0  0  0
  8  9  2  0  0  0  0
  9 10  1  0  0  0  0
 10 11  1  0  0  0  0
 11 12  2  0  0  0  0
 12 13  1  0  0  0  0
 13 14  2  0  0  0  0
 14 15  1  0  0  0  0
 15 16  1  0  0  0  0
 16 17  1  0  0  0  0
 17 18  2  0  0  0  0
 17 19  1  0  0  0  0
 19 20  2  0  0  0  0
 20 21  1  0  0  0  0
 21 22  2  0  0  0  0
 22 23  1  0  0  0  0
 23 24  1  0  0  0  0
 24 25  1  0  0  0  0
 25 26  1  0  0  0  0
 26 27  1  0  0  0  0
 27 28  1  0  0  0  0
 28 29  1  0  0  0  0
 29 30  1  0  0  0  0
 30 31  1  0  0  0  0
 26 31  1  0  0  0  0
 22 32  1  0  0  0  0
 32 33  2  0  0  0  0
 19 33  1  0  0  0  0
 15 34  2  0  0  0  0
 11 34  1  0  0  0  0
  9 35  1  0  0  0  0
 35 36  2  0  0  0  0
  3 36  1  0  0  0  0
  6 36  1  0  0  0  0
  4 37  1  0  0  0  0
 37 38  2  0  0  0  0
 38 39  1  0  0  0  0
 39 40  1  0  0  0  0
 40 41  2  0  0  0  0
 37 41  1  0  0  0  0
 41 42  1  0  0  0  0
M  END
> <Value>
6.299997602857746

> <Relation>
=

> <SourceURI>
mol:CHEMBL220241

$$$$

Generated by Molecular Materials Informatics

 20 21  0  0  0  0  0  0  0  0999 V2000
   -0.3247   -0.1687    0.0000 O   0  0  0  0  0  0  0  0  0  0  0  0
    0.9743    2.0812    0.0000 O   0  0  0  0  0  0  0  0  0  0  0  0
    4.8713    4.3311    0.0000 O   0  0  0  0  0  0  0  0  0  0  0  0
    0.9743   -2.4187    0.0000 N   0  0  0  0  0  0  0  0  0  0  0  0
    6.1704    2.0812    0.0000 N   0  0  0  0  0  0  0  0  0  0  0  0
    0.9743   -5.4186    0.0000 N   0  0  0  0  0  0  0  0  0  0  0  0
    2.2734   -0.1687    0.0000 C   0  0  0  0  0  0  0  0  0  0  0  0
    0.9743   -0.9187    0.0000 C   0  0  0  0  0  0  0  0  0  0  0  0
    2.2734    1.3312    0.0000 C   0  0  0  0  0  0  0  0  0  0  0  0
    4.8713    1.3312    0.0000 C   0  0  0  0  0  0  0  0  0  0  0  0
    3.5724   -0.9187    0.0000 C   0  0  0  0  0  0  0  0  0  0  0  0
    3.5724    2.0812    0.0000 C   0  0  0  0  0  0  0  0  0  0  0  0
    4.8713   -0.1687    0.0000 C   0  0  0  0  0  0  0  0  0  0  0  0
    2.2734   -3.1686    0.0000 C   0  0  0  0  0  0  0  0  0  0  0  0
   -0.3247   -3.1686    0.0000 C   0  0  0  0  0  0  0  0  0  0  0  0
    2.2734   -4.6686    0.0000 C   0  0  0  0  0  0  0  0  0  0  0  0
   -0.3247   -4.6686    0.0000 C   0  0  0  0  0  0  0  0  0  0  0  0
    6.1704    3.5811    0.0000 C   0  0  0  0  0  0  0  0  0  0  0  0
    7.4694    4.3311    0.0000 C   0  0  0  0  0  0  0  0  0  0  0  0
    7.4694    5.8311    0.0000 C   0  0  0  0  0  0  0  0  0  0  0  0
  1  8  2  0  0  0  0
  2  9  1  0  0  0  0
  3 18  2  0  0  0  0
  4  8  1  0  0  0  0
  4 14  1  0  0  0  0
  4 15  1  0  0  0  0
  5 10  1  0  0  0  0
  5 18  1  0  0  0  0
  6 16  1  0  0  0  0
  6 17  1  0  0  0  0
  7  8  1  0  0  0  0
  7  9  1  0  0  0  0
  7 11  2  0  0  0  0
  9 12  2  0  0  0  0
 10 12  1  0  0  0  0
 10 13  2  0  0  0  0
 11 13  1  0  0  0  0
 14 16  1  0  0  0  0
 15 17  1  0  0  0  0
 18 19  1  0  0  0  0
 19 20  1  0  0  0  0
M  END
> <Value>
6.0999990348465305

> <Relation>
=

> <SourceURI>
mol:CHEMBL1988141

$$$$

Generated by Molecular Materials Informatics

 24 26  0  0  0  0  0  0  0  0999 V2000
    0.4725  -10.7101    0.0000 Cl  0  0  0  0  0  0  0  0  0  0  0  0
    6.7112   -8.7534    0.0000 O   0  0  0  0  0  0  0  0  0  0  0  0
    0.1339   -6.7560    0.0000 N   0  0  0  0  0  0  0  0  0  0  0  0
    2.2358   -8.2830    0.0000 N   0  0  0  0  0  0  0  0  0  0  0  0
   -1.9679   -5.2289    0.0000 N   0  0  0  0  0  0  0  0  0  0  0  0
   -2.2395   -7.8127    0.0000 N   0  0  0  0  0  0  0  0  0  0  0  0
   -0.3362   -1.7070    0.0000 N   0  0  0  0  0  0  0  0  0  0  0  0
    0.8772   -2.5887    0.0000 N   0  0  0  0  0  0  0  0  0  0  0  0
    4.6092   -7.2263    0.0000 N   0  0  0  0  0  0  0  0  0  0  0  0
    0.7439   -8.1263    0.0000 C   0  0  0  0  0  0  0  0  0  0  0  0
   -1.3579   -6.5992    0.0000 C   0  0  0  0  0  0  0  0  0  0  0  0
    2.8459   -9.6534    0.0000 C   0  0  0  0  0  0  0  0  0  0  0  0
   -0.1377   -9.3398    0.0000 C   0  0  0  0  0  0  0  0  0  0  0  0
    4.3378   -9.8101    0.0000 C   0  0  0  0  0  0  0  0  0  0  0  0
   -1.0862   -4.0154    0.0000 C   0  0  0  0  0  0  0  0  0  0  0  0
   -1.6295   -9.1830    0.0000 C   0  0  0  0  0  0  0  0  0  0  0  0
    1.9643  -10.8669    0.0000 C   0  0  0  0  0  0  0  0  0  0  0  0
   -1.5499   -2.5887    0.0000 C   0  0  0  0  0  0  0  0  0  0  0  0
    5.2194   -8.5967    0.0000 C   0  0  0  0  0  0  0  0  0  0  0  0
    0.4138   -4.0154    0.0000 C   0  0  0  0  0  0  0  0  0  0  0  0
    4.9478  -11.1805    0.0000 C   0  0  0  0  0  0  0  0  0  0  0  0
    2.5743  -12.2372    0.0000 C   0  0  0  0  0  0  0  0  0  0  0  0
    4.0661  -12.3940    0.0000 C   0  0  0  0  0  0  0  0  0  0  0  0
   -0.3362   -0.2070    0.0000 C   0  0  0  0  0  0  0  0  0  0  0  0
  1 13  1  0  0  0  0
  2 19  2  0  0  0  0
  3 10  2  0  0  0  0
  3 11  1  0  0  0  0
  4 10  1  0  0  0  0
  4 12  1  0  0  0  0
  5 11  1  0  0  0  0
  5 15  1  0  0  0  0
  6 11  2  0  0  0  0
  6 16  1  0  0  0  0
  7  8  1  0  0  0  0
  7 18  1  0  0  0  0
  7 24  1  0  0  0  0
  8 20  2  0  0  0  0
  9 19  1  0  0  0  0
 10 13  1  0  0  0  0
 12 14  1  0  0  0  0
 12 17  2  0  0  0  0
 13 16  2  0  0  0  0
 14 19  1  0  0  0  0
 14 21  2  0  0  0  0
 15 18  2  0  0  0  0
 15 20  1  0  0  0  0
 17 22  1  0  0  0  0
 21 23  1  0  0  0  0
 22 23  2  0  0  0  0
M  END
> <Value>
8.300162274132754

> <Relation>
=

> <SourceURI>
mol:CHEMBL1984548

$$$$

Generated by Molecular Materials Informatics

 30 34  0  0  0  0  0  0  0  0999 V2000
   -1.9887   -3.0492    0.0000 O   0  0  0  0  0  0  0  0  0  0  0  0
  -11.1129  -10.2554    0.0000 O   0  0  0  0  0  0  0  0  0  0  0  0
  -10.1551   -7.7599    0.0000 N   0  0  0  0  0  0  0  0  0  0  0  0
    1.8727    2.8548    0.0000 N   0  0  0  0  0  0  0  0  0  0  0  0
   -1.9122   -7.0170    0.0000 N   0  0  0  0  0  0  0  0  0  0  0  0
   -1.0618   -0.1959    0.0000 N   0  0  0  0  0  0  0  0  0  0  0  0
   -7.7811   -8.2645    0.0000 C   0  0  0  0  0  0  0  0  0  0  0  0
   -8.7847   -7.1497    0.0000 C   0  0  0  0  0  0  0  0  0  0  0  0
   -5.8504   -6.5261    0.0000 C   0  0  0  0  0  0  0  0  0  0  0  0
   -4.3831   -6.2141    0.0000 C   0  0  0  0  0  0  0  0  0  0  0  0
    3.2993    0.8914    0.0000 C   0  0  0  0  0  0  0  0  0  0  0  0
   -6.3138   -7.9526    0.0000 C   0  0  0  0  0  0  0  0  0  0  0  0
    1.8727    0.4277    0.0000 C   0  0  0  0  0  0  0  0  0  0  0  0
    3.2993    2.3914    0.0000 C   0  0  0  0  0  0  0  0  0  0  0  0
   -8.5311   -9.5635    0.0000 C   0  0  0  0  0  0  0  0  0  0  0  0
   -9.9982   -9.2517    0.0000 C   0  0  0  0  0  0  0  0  0  0  0  0
   -8.3213   -5.7232    0.0000 C   0  0  0  0  0  0  0  0  0  0  0  0
   -6.8540   -5.4114    0.0000 C   0  0  0  0  0  0  0  0  0  0  0  0
   -3.9195   -4.7875    0.0000 C   0  0  0  0  0  0  0  0  0  0  0  0
   -2.4524   -4.4757    0.0000 C   0  0  0  0  0  0  0  0  0  0  0  0
    0.9911    1.6414    0.0000 C   0  0  0  0  0  0  0  0  0  0  0  0
   -3.3793   -7.3288    0.0000 C   0  0  0  0  0  0  0  0  0  0  0  0
    1.4093   -0.9988    0.0000 C   0  0  0  0  0  0  0  0  0  0  0  0
    4.5983    0.1414    0.0000 C   0  0  0  0  0  0  0  0  0  0  0  0
    4.5983    3.1414    0.0000 C   0  0  0  0  0  0  0  0  0  0  0  0
   -0.0580   -1.3106    0.0000 C   0  0  0  0  0  0  0  0  0  0  0  0
   -1.4486   -5.5905    0.0000 C   0  0  0  0  0  0  0  0  0  0  0  0
    5.8974    0.8914    0.0000 C   0  0  0  0  0  0  0  0  0  0  0  0
    5.8974    2.3914    0.0000 C   0  0  0  0  0  0  0  0  0  0  0  0
   -0.5217   -2.7374    0.0000 C   0  0  0  0  0  0  0  0  0  0  0  0
  1 20  1  0  0  0  0
  1 30  1  0  0  0  0
  2 16  2  0  0  0  0
  3  8  1  0  0  0  0
  3 16  1  0  0  0  0
  4 14  1  0  0  0  0
  4 21  1  0  0  0  0
  5 22  2  0  0  0  0
  5 27  1  0  0  0  0
  6 26  1  0  0  0  0
  7  8  1  0  0  0  0
  7 12  2  0  0  0  0
  7 15  1  0  0  0  0
  8 17  2  0  0  0  0
  9 10  1  0  0  0  0
  9 12  1  0  0  0  0
  9 18  2  0  0  0  0
 10 19  2  0  0  0  0
 10 22  1  0  0  0  0
 11 13  1  0  0  0  0
 11 14  1  0  0  0  0
 11 24  2  0  0  0  0
 13 21  2  0  0  0  0
 13 23  1  0  0  0  0
 14 25  2  0  0  0  0
 15 16  1  0  0  0  0
 17 18  1  0  0  0  0
 19 20  1  0  0  0  0
 20 27  2  0  0  0  0
 23 26  1  0  0  0  0
 24 28  1  0  0  0  0
 25 29  1  0  0  0  0
 26 30  1  0  0  0  0
 28 29  2  0  0  0  0
M  END
> <Value>
5.899998417198648

> <Relation>
<

> <SourceURI>
mol:CHEMBL1967302

$$$$

Generated by Molecular Materials Informatics

 31 35  0  0  0  0  0  0  0  0999 V2000
    1.3080  -11.0482    0.0000 C   0  0  0  0  0  0  0  0  0  0  0  0
    1.4749  -12.5430    0.0000 C   0  0  0  0  0  0  0  0  0  0  0  0
    2.8502  -13.1429    0.0000 C   0  0  0  0  0  0  0  0  0  0  0  0
    2.5095  -10.1571    0.0000 C   0  0  0  0  0  0  0  0  0  0  0  0
   -0.0672  -10.4491    0.0000 O   0  0  0  0  0  0  0  0  0  0  0  0
   -1.2733  -11.3405    0.0000 C   0  0  0  0  0  0  0  0  0  0  0  0
    3.8854  -10.7502    0.0000 C   0  0  0  0  0  0  0  0  0  0  0  0
    4.0556  -12.2514    0.0000 C   0  0  0  0  0  0  0  0  0  0  0  0
    5.5359  -12.5535    0.0000 C   0  0  0  0  0  0  0  0  0  0  0  0
    5.2604  -10.1246    0.0000 C   0  0  0  0  0  0  0  0  0  0  0  0
    6.2838  -11.2456    0.0000 C   0  0  0  0  0  0  0  0  0  0  0  0
    7.6663  -10.6189    0.0000 C   0  0  0  0  0  0  0  0  0  0  0  0
    7.4974   -9.1107    0.0000 N   0  0  0  0  0  0  0  0  0  0  0  0
    6.0106   -8.8052    0.0000 N   0  0  0  0  0  0  0  0  0  0  0  0
    8.9662  -11.3563    0.0000 C   0  0  0  0  0  0  0  0  0  0  0  0
    8.9738  -12.8581    0.0000 C   0  0  0  0  0  0  0  0  0  0  0  0
   10.2763  -13.5991    0.0000 C   0  0  0  0  0  0  0  0  0  0  0  0
   11.5719  -12.8402    0.0000 C   0  0  0  0  0  0  0  0  0  0  0  0
   11.5568  -11.3329    0.0000 N   0  0  0  0  0  0  0  0  0  0  0  0
   10.2536  -10.5986    0.0000 C   0  0  0  0  0  0  0  0  0  0  0  0
   -2.6483  -10.7415    0.0000 C   0  0  0  0  0  0  0  0  0  0  0  0
   12.8792  -13.5715    0.0000 C   0  0  0  0  0  0  0  0  0  0  0  0
   14.1839  -14.3109    0.0000 N   0  0  0  0  0  0  0  0  0  0  0  0
   -3.8544  -11.6329    0.0000 C   0  0  0  0  0  0  0  0  0  0  0  0
   -5.2296  -11.0340    0.0000 C   0  0  0  0  0  0  0  0  0  0  0  0
   -6.4357  -11.9252    0.0000 N   0  0  0  0  0  0  0  0  0  0  0  0
   -7.7207  -11.1591    0.0000 C   0  0  0  0  0  0  0  0  0  0  0  0
   -9.0181  -11.8988    0.0000 C   0  0  0  0  0  0  0  0  0  0  0  0
   -9.0303  -13.3991    0.0000 O   0  0  0  0  0  0  0  0  0  0  0  0
   -7.7338  -14.1569    0.0000 C   0  0  0  0  0  0  0  0  0  0  0  0
   -6.4252  -13.4142    0.0000 C   0  0  0  0  0  0  0  0  0  0  0  0
  7  8  1  0  0  0  0
  3  8  2  0  0  0  0
 15 16  2  0  0  0  0
  1  2  2  0  0  0  0
 16 17  1  0  0  0  0
  7  4  2  0  0  0  0
 17 18  2  0  0  0  0
  8  9  1  0  0  0  0
 18 19  1  0  0  0  0
  9 11  1  0  0  0  0
 19 20  2  0  0  0  0
 20 15  1  0  0  0  0
 12 15  1  0  0  0  0
 10  7  1  0  0  0  0
  6 21  1  0  0  0  0
 10 11  2  0  0  0  0
  4  1  1  0  0  0  0
 22 23  3  0  0  0  0
 18 22  1  0  0  0  0
 21 24  1  0  0  0  0
  1  5  1  0  0  0  0
 24 25  1  0  0  0  0
  2  3  1  0  0  0  0
 25 26  1  0  0  0  0
 26 27  1  0  0  0  0
  5  6  1  0  0  0  0
 11 12  1  0  0  0  0
 12 13  2  0  0  0  0
 13 14  1  0  0  0  0
 14 10  1  0  0  0  0
 26 31  1  0  0  0  0
 27 28  1  0  0  0  0
 28 29  1  0  0  0  0
 29 30  1  0  0  0  0
 30 31  1  0  0  0  0
M  END
> <Value>
5.40000018605658

> <Relation>
<

> <SourceURI>
mol:CHEMBL398951

$$$$

Generated by Molecular Materials Informatics

 19 21  0  0  0  0  0  0  0  0999 V2000
    3.7200    3.0756    0.0000 O   0  0  0  0  0  0  0  0  0  0  0  0
    6.5017   -1.4125    0.0000 O   0  0  0  0  0  0  0  0  0  0  0  0
   -1.4696    2.9296    0.0000 O   0  0  0  0  0  0  0  0  0  0  0  0
   -2.8878    0.2860    0.0000 O   0  0  0  0  0  0  0  0  0  0  0  0
    3.1904   -2.1234    0.0000 N   0  0  0  0  0  0  0  0  0  0  0  0
    5.4664    1.0518    0.0000 N   0  0  0  0  0  0  0  0  0  0  0  0
    3.1093    0.4733    0.0000 C   0  0  0  0  0  0  0  0  0  0  0  0
    1.6100    0.4266    0.0000 C   0  0  0  0  0  0  0  0  0  0  0  0
    3.8995   -0.8016    0.0000 C   0  0  0  0  0  0  0  0  0  0  0  0
    0.9009   -0.8953    0.0000 C   0  0  0  0  0  0  0  0  0  0  0  0
    4.0777    1.6189    0.0000 C   0  0  0  0  0  0  0  0  0  0  0  0
    5.3562   -0.4442    0.0000 C   0  0  0  0  0  0  0  0  0  0  0  0
    0.8199    1.7015    0.0000 C   0  0  0  0  0  0  0  0  0  0  0  0
   -0.6794    1.6546    0.0000 C   0  0  0  0  0  0  0  0  0  0  0  0
    1.6911   -2.1703    0.0000 C   0  0  0  0  0  0  0  0  0  0  0  0
   -1.3885    0.3327    0.0000 C   0  0  0  0  0  0  0  0  0  0  0  0
   -0.5983   -0.9422    0.0000 C   0  0  0  0  0  0  0  0  0  0  0  0
   -2.9689    2.8827    0.0000 C   0  0  0  0  0  0  0  0  0  0  0  0
   -3.5969   -1.0358    0.0000 C   0  0  0  0  0  0  0  0  0  0  0  0
  1 11  2  0  0  0  0
  2 12  2  0  0  0  0
  3 14  1  0  0  0  0
  3 18  1  0  0  0  0
  4 16  1  0  0  0  0
  4 19  1  0  0  0  0
  5  9  2  0  0  0  0
  5 15  1  0  0  0  0
  6 11  1  0  0  0  0
  6 12  1  0  0  0  0
  7  8  2  0  0  0  0
  7  9  1  0  0  0  0
  7 11  1  0  0  0  0
  8 10  1  0  0  0  0
  8 13  1  0  0  0  0
  9 12  1  0  0  0  0
 10 15  2  0  0  0  0
 10 17  1  0  0  0  0
 13 14  2  0  0  0  0
 14 16  1  0  0  0  0
 16 17  2  0  0  0  0
M  END
> <Value>
5.899998417198648

> <Relation>
<

> <SourceURI>
mol:CHEMBL1982506

$$$$

Generated by Molecular Materials Informatics

 39 42  0  0  0  0  0  0  0  0999 V2000
    2.2308    3.6934    0.0000 S   0  0  0  0  0  0  0  0  0  0  0  0
    7.0172    0.9678    0.0000 O   0  0  0  0  0  0  0  0  0  0  0  0
   -5.0997    8.0185    0.0000 O   0  0  0  0  0  0  0  0  0  0  0  0
    0.2672   -0.3312    0.0000 N   0  0  0  0  0  0  0  0  0  0  0  0
   -1.9828    0.9678    0.0000 N   0  0  0  0  0  0  0  0  0  0  0  0
   -5.9026    5.5476    0.0000 N   0  0  0  0  0  0  0  0  0  0  0  0
   -7.6410    7.4783    0.0000 N   0  0  0  0  0  0  0  0  0  0  0  0
    7.0172   -1.6302    0.0000 N   0  0  0  0  0  0  0  0  0  0  0  0
   10.7672   -2.9293    0.0000 N   0  0  0  0  0  0  0  0  0  0  0  0
    0.2672    2.2668    0.0000 C   0  0  0  0  0  0  0  0  0  0  0  0
    1.7672    2.2668    0.0000 C   0  0  0  0  0  0  0  0  0  0  0  0
   -0.1963    3.6934    0.0000 C   0  0  0  0  0  0  0  0  0  0  0  0
   -0.4828    0.9678    0.0000 C   0  0  0  0  0  0  0  0  0  0  0  0
    2.5172    0.9678    0.0000 C   0  0  0  0  0  0  0  0  0  0  0  0
   -1.6228    4.1570    0.0000 C   0  0  0  0  0  0  0  0  0  0  0  0
    1.0172    4.5752    0.0000 C   0  0  0  0  0  0  0  0  0  0  0  0
    1.7672   -0.3312    0.0000 C   0  0  0  0  0  0  0  0  0  0  0  0
   -2.7375    3.1532    0.0000 C   0  0  0  0  0  0  0  0  0  0  0  0
   -1.9348    5.6241    0.0000 C   0  0  0  0  0  0  0  0  0  0  0  0
    4.0172    0.9678    0.0000 C   0  0  0  0  0  0  0  0  0  0  0  0
   -4.4761    5.0841    0.0000 C   0  0  0  0  0  0  0  0  0  0  0  0
   -4.1643    3.6169    0.0000 C   0  0  0  0  0  0  0  0  0  0  0  0
   -3.3613    6.0878    0.0000 C   0  0  0  0  0  0  0  0  0  0  0  0
    4.7672   -0.3312    0.0000 C   0  0  0  0  0  0  0  0  0  0  0  0
    6.2672   -0.3312    0.0000 C   0  0  0  0  0  0  0  0  0  0  0  0
   -6.2144    7.0149    0.0000 C   0  0  0  0  0  0  0  0  0  0  0  0
   -7.9530    8.9456    0.0000 C   0  0  0  0  0  0  0  0  0  0  0  0
   -9.3795    9.4090    0.0000 C   0  0  0  0  0  0  0  0  0  0  0  0
   -6.8383    9.9492    0.0000 C   0  0  0  0  0  0  0  0  0  0  0  0
   -9.6914   10.8763    0.0000 C   0  0  0  0  0  0  0  0  0  0  0  0
    8.5172   -1.6302    0.0000 C   0  0  0  0  0  0  0  0  0  0  0  0
   -7.1501   11.4165    0.0000 C   0  0  0  0  0  0  0  0  0  0  0  0
   -8.5766   11.8799    0.0000 C   0  0  0  0  0  0  0  0  0  0  0  0
    9.2672   -2.9293    0.0000 C   0  0  0  0  0  0  0  0  0  0  0  0
  -11.1179   11.3398    0.0000 C   0  0  0  0  0  0  0  0  0  0  0  0
   11.5172   -4.2282    0.0000 C   0  0  0  0  0  0  0  0  0  0  0  0
   11.5172   -1.6302    0.0000 C   0  0  0  0  0  0  0  0  0  0  0  0
   13.0172   -4.2282    0.0000 C   0  0  0  0  0  0  0  0  0  0  0  0
   13.0172   -1.6302    0.0000 C   0  0  0  0  0  0  0  0  0  0  0  0
  1 11  1  0  0  0  0
  1 16  1  0  0  0  0
  2 25  2  0  0  0  0
  3 26  2  0  0  0  0
  4 13  2  0  0  0  0
  4 17  1  0  0  0  0
  5 13  1  0  0  0  0
  6 21  1  0  0  0  0
  6 26  1  0  0  0  0
  7 26  1  0  0  0  0
  7 27  1  0  0  0  0
  8 25  1  0  0  0  0
  8 31  1  0  0  0  0
  9 34  1  0  0  0  0
  9 36  1  0  0  0  0
  9 37  1  0  0  0  0
 10 11  2  0  0  0  0
 10 12  1  0  0  0  0
 10 13  1  0  0  0  0
 11 14  1  0  0  0  0
 12 15  1  0  0  0  0
 12 16  2  0  0  0  0
 14 17  2  0  0  0  0
 20 14  1  0  0  0  0
 15 18  2  0  0  0  0
 15 19  1  0  0  0  0
 18 22  1  0  0  0  0
 19 23  2  0  0  0  0
 20 24  2  0  0  0  0
 21 22  2  0  0  0  0
 21 23  1  0  0  0  0
 24 25  1  0  0  0  0
 27 28  1  0  0  0  0
 27 29  2  0  0  0  0
 28 30  2  0  0  0  0
 29 32  1  0  0  0  0
 30 33  1  0  0  0  0
 30 35  1  0  0  0  0
 31 34  1  0  0  0  0
 32 33  2  0  0  0  0
 36 38  1  0  0  0  0
 37 39  1  0  0  0  0
M  END
> <Value>
5.899998417198648

> <Relation>
=

> <SourceURI>
mol:CHEMBL2004716

$$$$

Generated by Molecular Materials Informatics

 22 23  0  0  0  0  0  0  0  0999 V2000
    1.2991  -11.8688    0.0000 Cl  0  0  0  0  0  0  0  0  0  0  0  0
    1.2991   -5.8688    0.0000 O   0  0  0  0  0  0  0  0  0  0  0  0
    0.0000   -5.1187    0.0000 O   0  0  0  0  0  0  0  0  0  0  0  0
   -1.2991   -7.3687    0.0000 N   0  0  0  0  0  0  0  0  0  0  0  0
   -2.5980   -5.1187    0.0000 N   0  0  0  0  0  0  0  0  0  0  0  0
   -1.2991   -2.8688    0.0000 N   0  0  0  0  0  0  0  0  0  0  0  0
   -3.8971   -1.3688    0.0000 N   0  0  0  0  0  0  0  0  0  0  0  0
   -2.5980    2.3812    0.0000 N   0  0  0  0  0  0  0  0  0  0  0  0
    0.0000   -8.1187    0.0000 C   0  0  0  0  0  0  0  0  0  0  0  0
    1.2991   -7.3687    0.0000 C   0  0  0  0  0  0  0  0  0  0  0  0
    1.2991  -10.3687    0.0000 C   0  0  0  0  0  0  0  0  0  0  0  0
    2.5980   -9.6187    0.0000 C   0  0  0  0  0  0  0  0  0  0  0  0
    0.0000   -9.6187    0.0000 C   0  0  0  0  0  0  0  0  0  0  0  0
    2.5980   -8.1187    0.0000 C   0  0  0  0  0  0  0  0  0  0  0  0
   -1.2991   -5.8688    0.0000 C   0  0  0  0  0  0  0  0  0  0  0  0
   -2.5980   -3.6188    0.0000 C   0  0  0  0  0  0  0  0  0  0  0  0
   -2.5980   -0.6188    0.0000 C   0  0  0  0  0  0  0  0  0  0  0  0
   -3.8971   -2.8688    0.0000 C   0  0  0  0  0  0  0  0  0  0  0  0
   -1.2991   -1.3688    0.0000 C   0  0  0  0  0  0  0  0  0  0  0  0
    3.8971  -10.3687    0.0000 C   0  0  0  0  0  0  0  0  0  0  0  0
   -2.5980    0.8812    0.0000 C   0  0  0  0  0  0  0  0  0  0  0  0
    2.5980   -5.1187    0.0000 C   0  0  0  0  0  0  0  0  0  0  0  0
  1 11  1  0  0  0  0
  2 10  1  0  0  0  0
  2 22  1  0  0  0  0
  3 15  2  0  0  0  0
  4  9  1  0  0  0  0
  4 15  1  0  0  0  0
  5 15  1  0  0  0  0
  5 16  1  0  0  0  0
  6 16  1  0  0  0  0
  6 19  2  0  0  0  0
  7 17  2  0  0  0  0
  7 18  1  0  0  0  0
  8 21  3  0  0  0  0
  9 10  1  0  0  0  0
  9 13  2  0  0  0  0
 10 14  2  0  0  0  0
 11 12  2  0  0  0  0
 11 13  1  0  0  0  0
 12 14  1  0  0  0  0
 12 20  1  0  0  0  0
 16 18  2  0  0  0  0
 17 19  1  0  0  0  0
 17 21  1  0  0  0  0
M  END
> <Value>
5.899998417198648

> <Relation>
<

> <SourceURI>
mol:CHEMBL1975233

$$$$

Generated by Molecular Materials Informatics

 23 25  0  0  0  0  0  0  0  0999 V2000
   -6.6741   -0.7304    0.0000 F   0  0  0  0  0  0  0  0  0  0  0  0
   -7.6011    2.1226    0.0000 F   0  0  0  0  0  0  0  0  0  0  0  0
    2.1592   -5.2027    0.0000 O   0  0  0  0  0  0  0  0  0  0  0  0
   -2.0627   -5.5063    0.0000 N   0  0  0  0  0  0  0  0  0  0  0  0
   -0.5955   -5.1945    0.0000 N   0  0  0  0  0  0  0  0  0  0  0  0
    0.8603   -2.9527    0.0000 N   0  0  0  0  0  0  0  0  0  0  0  0
   -1.8091   -3.0925    0.0000 C   0  0  0  0  0  0  0  0  0  0  0  0
   -2.8127   -4.2072    0.0000 C   0  0  0  0  0  0  0  0  0  0  0  0
   -3.7398   -1.3542    0.0000 C   0  0  0  0  0  0  0  0  0  0  0  0
   -0.4388   -3.7027    0.0000 C   0  0  0  0  0  0  0  0  0  0  0  0
   -4.2032    0.0723    0.0000 C   0  0  0  0  0  0  0  0  0  0  0  0
   -2.2725   -1.6660    0.0000 C   0  0  0  0  0  0  0  0  0  0  0  0
   -4.2799   -3.8954    0.0000 C   0  0  0  0  0  0  0  0  0  0  0  0
   -5.6705    0.3843    0.0000 C   0  0  0  0  0  0  0  0  0  0  0  0
   -4.7434   -2.4689    0.0000 C   0  0  0  0  0  0  0  0  0  0  0  0
   -6.1339    1.8108    0.0000 C   0  0  0  0  0  0  0  0  0  0  0  0
   -3.1996    1.1870    0.0000 C   0  0  0  0  0  0  0  0  0  0  0  0
    2.1592   -3.7027    0.0000 C   0  0  0  0  0  0  0  0  0  0  0  0
   -5.1303    2.9255    0.0000 C   0  0  0  0  0  0  0  0  0  0  0  0
   -3.6631    2.6137    0.0000 C   0  0  0  0  0  0  0  0  0  0  0  0
    3.4582   -2.9527    0.0000 C   0  0  0  0  0  0  0  0  0  0  0  0
    4.7573   -3.7027    0.0000 C   0  0  0  0  0  0  0  0  0  0  0  0
    6.0563   -2.9527    0.0000 C   0  0  0  0  0  0  0  0  0  0  0  0
  1 14  1  0  0  0  0
  2 16  1  0  0  0  0
  3 18  2  0  0  0  0
  4  5  1  0  0  0  0
  4  8  1  0  0  0  0
  5 10  2  0  0  0  0
  6 10  1  0  0  0  0
  6 18  1  0  0  0  0
  7  8  1  0  0  0  0
  7 10  1  0  0  0  0
  7 12  2  0  0  0  0
  8 13  2  0  0  0  0
  9 11  1  0  0  0  0
  9 12  1  0  0  0  0
  9 15  2  0  0  0  0
 11 14  1  0  0  0  0
 11 17  2  0  0  0  0
 13 15  1  0  0  0  0
 14 16  2  0  0  0  0
 16 19  1  0  0  0  0
 17 20  1  0  0  0  0
 18 21  1  0  0  0  0
 19 20  2  0  0  0  0
 21 22  1  0  0  0  0
 22 23  1  0  0  0  0
M  END
> <Value>
6.0999990348465305

> <Relation>
=

> <SourceURI>
mol:CHEMBL1985406

$$$$

Generated by Molecular Materials Informatics

 21 23  0  0  0  0  0  0  0  0999 V2000
    1.7126    1.2563    0.0000 C   0  0  0  0  0  0  0  0  0  0  0  0
    1.7104   -0.2437    0.0000 C   0  0  0  0  0  0  0  0  0  0  0  0
    3.0064   -0.9923    0.0000 C   0  0  0  0  0  0  0  0  0  0  0  0
    3.0031    2.0048    0.0000 C   0  0  0  0  0  0  0  0  0  0  0  0
    4.3002    1.2630    0.0000 C   0  0  0  0  0  0  0  0  0  0  0  0
    4.3064   -0.2476    0.0000 C   0  0  0  0  0  0  0  0  0  0  0  0
    5.6104   -0.9932    0.0000 N   0  0  0  0  0  0  0  0  0  0  0  0
    5.5980    2.0277    0.0000 C   0  0  0  0  0  0  0  0  0  0  0  0
    5.6146   -2.4890    0.0000 O   0  0  0  0  0  0  0  0  0  0  0  0
    5.5897    3.5235    0.0000 O   0  0  0  0  0  0  0  0  0  0  0  0
    0.4170    2.0041    0.0000 Cl  0  0  0  0  0  0  0  0  0  0  0  0
    8.3475    1.7481    0.0000 C   0  0  0  0  0  0  0  0  0  0  0  0
    6.9104    1.2737    0.0000 C   0  0  0  0  0  0  0  0  0  0  0  0
    6.9195   -0.2410    0.0000 C   0  0  0  0  0  0  0  0  0  0  0  0
    8.3640   -0.6979    0.0000 N   0  0  0  0  0  0  0  0  0  0  0  0
    9.2426    0.5359    0.0000 N   0  0  0  0  0  0  0  0  0  0  0  0
    8.8386   -2.1165    0.0000 C   0  0  0  0  0  0  0  0  0  0  0  0
    8.8010    3.1735    0.0000 C   0  0  0  0  0  0  0  0  0  0  0  0
    9.1791    4.6257    0.0000 F   0  0  0  0  0  0  0  0  0  0  0  0
   10.2380    2.7583    0.0000 F   0  0  0  0  0  0  0  0  0  0  0  0
    7.3626    3.5841    0.0000 F   0  0  0  0  0  0  0  0  0  0  0  0
  4  1  1  0  0  0  0
  8 10  2  0  0  0  0
  5  6  1  0  0  0  0
  1 11  1  0  0  0  0
 13 14  2  0  0  0  0
  2  3  1  0  0  0  0
  3  6  2  0  0  0  0
  1  2  2  0  0  0  0
  5  8  1  0  0  0  0
 12 13  1  0  0  0  0
 14 15  1  0  0  0  0
 15 16  1  0  0  0  0
 16 12  2  0  0  0  0
  6  7  1  0  0  0  0
 15 17  1  0  0  0  0
  7 14  1  0  0  0  0
 12 18  1  0  0  0  0
 13  8  1  0  0  0  0
 18 19  1  0  0  0  0
  5  4  2  0  0  0  0
 18 20  1  0  0  0  0
  7  9  1  0  0  0  0
 18 21  1  0  0  0  0
M  END
> <Value>
5.899998417198648

> <Relation>
<

> <SourceURI>
mol:CHEMBL207400

$$$$

Generated by Molecular Materials Informatics

 29 32  0  0  0  0  0  0  0  0999 V2000
   -0.5845    3.1875    0.0000 O   0  0  0  0  0  0  0  0  0  0  0  0
   -3.1825    3.1875    0.0000 O   0  0  0  0  0  0  0  0  0  0  0  0
   -0.5845   -7.3125    0.0000 O   0  0  0  0  0  0  0  0  0  0  0  0
   -0.5845   -1.3125    0.0000 N   0  0  0  0  0  0  0  0  0  0  0  0
   -4.4816    0.9375    0.0000 N   0  0  0  0  0  0  0  0  0  0  0  0
    7.2096   -2.8125    0.0000 N   0  0  0  0  0  0  0  0  0  0  0  0
   -5.7807    1.6875    0.0000 N   0  0  0  0  0  0  0  0  0  0  0  0
    0.7145   -0.5625    0.0000 C   0  0  0  0  0  0  0  0  0  0  0  0
    0.7145    0.9375    0.0000 C   0  0  0  0  0  0  0  0  0  0  0  0
   -0.5845    1.6875    0.0000 C   0  0  0  0  0  0  0  0  0  0  0  0
   -1.8836    0.9375    0.0000 C   0  0  0  0  0  0  0  0  0  0  0  0
   -0.5845   -2.8125    0.0000 C   0  0  0  0  0  0  0  0  0  0  0  0
   -1.8836   -0.5625    0.0000 C   0  0  0  0  0  0  0  0  0  0  0  0
    2.0134   -1.3125    0.0000 C   0  0  0  0  0  0  0  0  0  0  0  0
    3.3125   -0.5625    0.0000 C   0  0  0  0  0  0  0  0  0  0  0  0
    2.0134    1.6875    0.0000 C   0  0  0  0  0  0  0  0  0  0  0  0
    0.7145   -3.5625    0.0000 C   0  0  0  0  0  0  0  0  0  0  0  0
   -3.1825    1.6875    0.0000 C   0  0  0  0  0  0  0  0  0  0  0  0
    3.3125    0.9375    0.0000 C   0  0  0  0  0  0  0  0  0  0  0  0
   -1.8836   -3.5625    0.0000 C   0  0  0  0  0  0  0  0  0  0  0  0
    4.6116   -1.3125    0.0000 C   0  0  0  0  0  0  0  0  0  0  0  0
    0.7145   -5.0625    0.0000 C   0  0  0  0  0  0  0  0  0  0  0  0
   -0.5845   -5.8125    0.0000 C   0  0  0  0  0  0  0  0  0  0  0  0
   -1.8836   -5.0625    0.0000 C   0  0  0  0  0  0  0  0  0  0  0  0
    4.6116   -2.8125    0.0000 C   0  0  0  0  0  0  0  0  0  0  0  0
    5.9107   -0.5625    0.0000 C   0  0  0  0  0  0  0  0  0  0  0  0
    2.0134   -2.8125    0.0000 C   0  0  0  0  0  0  0  0  0  0  0  0
    5.9107   -3.5625    0.0000 C   0  0  0  0  0  0  0  0  0  0  0  0
    7.2096   -1.3125    0.0000 C   0  0  0  0  0  0  0  0  0  0  0  0
  1 10  2  0  0  0  0
  2 18  2  0  0  0  0
  3 23  1  0  0  0  0
  4  8  1  0  0  0  0
  4 12  1  0  0  0  0
  4 13  1  0  0  0  0
  5  7  1  0  0  0  0
  5 18  1  0  0  0  0
  6 28  2  0  0  0  0
  6 29  1  0  0  0  0
  8  9  1  0  0  0  0
  8 14  2  0  0  0  0
  9 10  1  0  0  0  0
  9 16  2  0  0  0  0
 10 11  1  0  0  0  0
 11 13  2  0  0  0  0
 11 18  1  0  0  0  0
 12 17  1  0  0  0  0
 12 20  2  0  0  0  0
 14 15  1  0  0  0  0
 15 19  2  0  0  0  0
 15 21  1  0  0  0  0
 16 19  1  0  0  0  0
 17 22  2  0  0  0  0
 17 27  1  0  0  0  0
 20 24  1  0  0  0  0
 21 25  2  0  0  0  0
 21 26  1  0  0  0  0
 22 23  1  0  0  0  0
 23 24  2  0  0  0  0
 25 28  1  0  0  0  0
 26 29  2  0  0  0  0
M  END
> <Value>
5.899998417198648

> <Relation>
<

> <SourceURI>
mol:CHEMBL2000894

$$$$

Generated by Molecular Materials Informatics

 18 20  0  0  0  0  0  0  0  0999 V2000
    3.3215   -0.4069    0.0000 S   0  0  0  0  0  0  0  0  0  0  0  0
   -3.5520   -1.9482    0.0000 S   0  0  0  0  0  0  0  0  0  0  0  0
    0.9398   -1.7914    0.0000 O   0  0  0  0  0  0  0  0  0  0  0  0
    3.3215    2.0202    0.0000 N   0  0  0  0  0  0  0  0  0  0  0  0
    0.9398    0.8067    0.0000 N   0  0  0  0  0  0  0  0  0  0  0  0
    4.7480    0.0567    0.0000 C   0  0  0  0  0  0  0  0  0  0  0  0
    4.7480    1.5567    0.0000 C   0  0  0  0  0  0  0  0  0  0  0  0
    2.4398    0.8067    0.0000 C   0  0  0  0  0  0  0  0  0  0  0  0
    6.0471   -0.6933    0.0000 C   0  0  0  0  0  0  0  0  0  0  0  0
    6.0471    2.3067    0.0000 C   0  0  0  0  0  0  0  0  0  0  0  0
    0.1898   -0.4924    0.0000 C   0  0  0  0  0  0  0  0  0  0  0  0
   -2.0602   -1.7914    0.0000 C   0  0  0  0  0  0  0  0  0  0  0  0
   -1.3102   -0.4924    0.0000 C   0  0  0  0  0  0  0  0  0  0  0  0
    7.3460    0.0567    0.0000 C   0  0  0  0  0  0  0  0  0  0  0  0
    7.3460    1.5567    0.0000 C   0  0  0  0  0  0  0  0  0  0  0  0
   -1.4502   -3.1616    0.0000 C   0  0  0  0  0  0  0  0  0  0  0  0
   -3.8638   -3.4154    0.0000 C   0  0  0  0  0  0  0  0  0  0  0  0
   -2.5649   -4.1654    0.0000 C   0  0  0  0  0  0  0  0  0  0  0  0
  1  6  1  0  0  0  0
  1  8  1  0  0  0  0
  2 12  1  0  0  0  0
  2 17  1  0  0  0  0
  3 11  2  0  0  0  0
  4  7  1  0  0  0  0
  4  8  2  0  0  0  0
  5  8  1  0  0  0  0
  5 11  1  0  0  0  0
  6  7  1  0  0  0  0
  6  9  2  0  0  0  0
  7 10  2  0  0  0  0
  9 14  1  0  0  0  0
 10 15  1  0  0  0  0
 11 13  1  0  0  0  0
 12 13  1  0  0  0  0
 12 16  2  0  0  0  0
 14 15  2  0  0  0  0
 16 18  1  0  0  0  0
 17 18  2  0  0  0  0
M  END
> <Value>
5.300000202445418

> <Relation>
=

> <SourceURI>
mol:CHEMBL1421720

$$$$

Generated by Molecular Materials Informatics

 11 12  0  0  0  0  0  0  0  0999 V2000
    1.8749   -3.3604    0.0000 Cl  0  0  0  0  0  0  0  0  0  0  0  0
    0.5759   -1.1104    0.0000 N   0  0  0  0  0  0  0  0  0  0  0  0
   -0.8507    0.8531    0.0000 N   0  0  0  0  0  0  0  0  0  0  0  0
   -1.7323   -0.3604    0.0000 N   0  0  0  0  0  0  0  0  0  0  0  0
    3.1740    0.3896    0.0000 N   0  0  0  0  0  0  0  0  0  0  0  0
   -1.3142   -3.0006    0.0000 N   0  0  0  0  0  0  0  0  0  0  0  0
    0.5759    0.3896    0.0000 C   0  0  0  0  0  0  0  0  0  0  0  0
   -0.8507   -1.5740    0.0000 C   0  0  0  0  0  0  0  0  0  0  0  0
    1.8749   -1.8604    0.0000 C   0  0  0  0  0  0  0  0  0  0  0  0
    1.8749    1.1396    0.0000 C   0  0  0  0  0  0  0  0  0  0  0  0
    3.1740   -1.1104    0.0000 C   0  0  0  0  0  0  0  0  0  0  0  0
  1  9  1  0  0  0  0
  2  7  1  0  0  0  0
  2  8  1  0  0  0  0
  2  9  1  0  0  0  0
  3  4  1  0  0  0  0
  3  7  2  0  0  0  0
  4  8  2  0  0  0  0
  5 10  2  0  0  0  0
  5 11  1  0  0  0  0
  6  8  1  0  0  0  0
  7 10  1  0  0  0  0
  9 11  2  0  0  0  0
M  END
> <Value>
5.200000237109354

> <Relation>
=

> <SourceURI>
mol:CHEMBL1968130

$$$$

Generated by Molecular Materials Informatics

 29 33  0  0  0  0  0  0  0  0999 V2000
    5.2808   -3.2819    0.0000 S   0  0  0  0  0  0  0  0  0  0  0  0
   -1.1125    3.0035    0.0000 O   0  0  0  0  0  0  0  0  0  0  0  0
    7.4088   -1.5548    0.0000 N   0  0  0  0  0  0  0  0  0  0  0  0
    6.7337    0.9540    0.0000 N   0  0  0  0  0  0  0  0  0  0  0  0
    4.2235    1.6238    0.0000 N   0  0  0  0  0  0  0  0  0  0  0  0
   -2.0411    0.5769    0.0000 N   0  0  0  0  0  0  0  0  0  0  0  0
   -3.6782    2.5942    0.0000 N   0  0  0  0  0  0  0  0  0  0  0  0
    3.5628   -1.5675    0.0000 C   0  0  0  0  0  0  0  0  0  0  0  0
    4.8986   -0.8851    0.0000 C   0  0  0  0  0  0  0  0  0  0  0  0
    3.7990   -3.0488    0.0000 C   0  0  0  0  0  0  0  0  0  0  0  0
    2.1619   -1.0313    0.0000 C   0  0  0  0  0  0  0  0  0  0  0  0
    5.9604   -1.9446    0.0000 C   0  0  0  0  0  0  0  0  0  0  0  0
    0.9971   -1.9766    0.0000 C   0  0  0  0  0  0  0  0  0  0  0  0
    5.2853    0.5642    0.0000 C   0  0  0  0  0  0  0  0  0  0  0  0
    2.6342   -3.9941    0.0000 C   0  0  0  0  0  0  0  0  0  0  0  0
    1.2333   -3.4579    0.0000 C   0  0  0  0  0  0  0  0  0  0  0  0
    1.9257    0.4500    0.0000 C   0  0  0  0  0  0  0  0  0  0  0  0
   -0.4038   -1.4406    0.0000 C   0  0  0  0  0  0  0  0  0  0  0  0
   -0.6400    0.0407    0.0000 C   0  0  0  0  0  0  0  0  0  0  0  0
    0.5247    0.9860    0.0000 C   0  0  0  0  0  0  0  0  0  0  0  0
    7.7956   -0.1055    0.0000 C   0  0  0  0  0  0  0  0  0  0  0  0
   -2.2773    2.0582    0.0000 C   0  0  0  0  0  0  0  0  0  0  0  0
   -3.9144    4.0755    0.0000 C   0  0  0  0  0  0  0  0  0  0  0  0
   -5.3153    4.6117    0.0000 C   0  0  0  0  0  0  0  0  0  0  0  0
   -2.7497    5.0208    0.0000 C   0  0  0  0  0  0  0  0  0  0  0  0
   -5.5515    6.0930    0.0000 C   0  0  0  0  0  0  0  0  0  0  0  0
   -2.9858    6.5021    0.0000 C   0  0  0  0  0  0  0  0  0  0  0  0
   -4.3868    7.0381    0.0000 C   0  0  0  0  0  0  0  0  0  0  0  0
   -6.4801    3.6664    0.0000 C   0  0  0  0  0  0  0  0  0  0  0  0
  1 10  1  0  0  0  0
  1 12  1  0  0  0  0
  2 22  2  0  0  0  0
  3 12  2  0  0  0  0
  3 21  1  0  0  0  0
  4 14  1  0  0  0  0
  4 21  2  0  0  0  0
  5 14  1  0  0  0  0
  6 19  1  0  0  0  0
  6 22  1  0  0  0  0
  7 22  1  0  0  0  0
  7 23  1  0  0  0  0
  8  9  1  0  0  0  0
  8 10  2  0  0  0  0
  8 11  1  0  0  0  0
  9 12  1  0  0  0  0
  9 14  2  0  0  0  0
 10 15  1  0  0  0  0
 11 13  1  0  0  0  0
 11 17  2  0  0  0  0
 13 16  1  0  0  0  0
 13 18  2  0  0  0  0
 15 16  1  0  0  0  0
 17 20  1  0  0  0  0
 18 19  1  0  0  0  0
 19 20  2  0  0  0  0
 23 24  1  0  0  0  0
 23 25  2  0  0  0  0
 24 26  2  0  0  0  0
 24 29  1  0  0  0  0
 25 27  1  0  0  0  0
 26 28  1  0  0  0  0
 27 28  2  0  0  0  0
M  END
> <Value>
5.899998417198648

> <Relation>
<

> <SourceURI>
mol:CHEMBL1982135

$$$$

Generated by Molecular Materials Informatics

 19 20  0  0  0  0  0  0  0  0999 V2000
   -3.7386   -0.4529    0.0000 Cl  0  0  0  0  0  0  0  0  0  0  0  0
   -2.3540   -1.3346    0.0000 S   0  0  0  0  0  0  0  0  0  0  0  0
   -2.4397    3.2971    0.0000 N   0  0  0  0  0  0  0  0  0  0  0  0
   -1.1406    1.0471    0.0000 N   0  0  0  0  0  0  0  0  0  0  0  0
   -5.0377    3.2971    0.0000 N   0  0  0  0  0  0  0  0  0  0  0  0
   -3.7386    5.5471    0.0000 N   0  0  0  0  0  0  0  0  0  0  0  0
    0.0729   -1.3346    0.0000 N   0  0  0  0  0  0  0  0  0  0  0  0
   -2.4397    1.7971    0.0000 C   0  0  0  0  0  0  0  0  0  0  0  0
   -3.7386    1.0471    0.0000 C   0  0  0  0  0  0  0  0  0  0  0  0
   -3.7386    4.0471    0.0000 C   0  0  0  0  0  0  0  0  0  0  0  0
   -1.1406   -0.4529    0.0000 C   0  0  0  0  0  0  0  0  0  0  0  0
   -5.0377    1.7971    0.0000 C   0  0  0  0  0  0  0  0  0  0  0  0
   -5.0377    6.2971    0.0000 C   0  0  0  0  0  0  0  0  0  0  0  0
   -1.8906   -2.7613    0.0000 C   0  0  0  0  0  0  0  0  0  0  0  0
   -0.3906   -2.7613    0.0000 C   0  0  0  0  0  0  0  0  0  0  0  0
   -5.0377    7.7971    0.0000 C   0  0  0  0  0  0  0  0  0  0  0  0
   -6.3368    5.5471    0.0000 C   0  0  0  0  0  0  0  0  0  0  0  0
   -6.3368    8.5471    0.0000 C   0  0  0  0  0  0  0  0  0  0  0  0
   -3.7386    8.5471    0.0000 C   0  0  0  0  0  0  0  0  0  0  0  0
  1  9  1  0  0  0  0
  2 11  1  0  0  0  0
  2 14  1  0  0  0  0
  3  8  2  0  0  0  0
  3 10  1  0  0  0  0
  4  8  1  0  0  0  0
  4 11  1  0  0  0  0
  5 10  2  0  0  0  0
  5 12  1  0  0  0  0
  6 10  1  0  0  0  0
  6 13  1  0  0  0  0
  7 11  2  0  0  0  0
  7 15  1  0  0  0  0
  8  9  1  0  0  0  0
  9 12  2  0  0  0  0
 13 16  1  0  0  0  0
 13 17  1  0  0  0  0
 14 15  2  0  0  0  0
 16 18  1  0  0  0  0
 16 19  1  0  0  0  0
M  END
> <Value>
5.300000202445418

> <Relation>
<

> <SourceURI>
mol:CHEMBL1993374

$$$$

Generated by Molecular Materials Informatics

 24 27  0  0  0  0  0  0  0  0999 V2000
   -3.9120    1.1664    0.0000 O   0  0  0  0  0  0  0  0  0  0  0  0
    2.6037    0.6213    0.0000 N   0  0  0  0  0  0  0  0  0  0  0  0
    4.7409   -2.5761    0.0000 N   0  0  0  0  0  0  0  0  0  0  0  0
    2.0124   -2.3198    0.0000 N   0  0  0  0  0  0  0  0  0  0  0  0
   -2.1949    3.1162    0.0000 N   0  0  0  0  0  0  0  0  0  0  0  0
    3.7293   -0.3699    0.0000 C   0  0  0  0  0  0  0  0  0  0  0  0
    3.4337   -1.8405    0.0000 C   0  0  0  0  0  0  0  0  0  0  0  0
    5.2193   -0.1967    0.0000 C   0  0  0  0  0  0  0  0  0  0  0  0
    1.1822    0.1422    0.0000 C   0  0  0  0  0  0  0  0  0  0  0  0
    5.8446   -1.5601    0.0000 C   0  0  0  0  0  0  0  0  0  0  0  0
    0.8866   -1.3283    0.0000 C   0  0  0  0  0  0  0  0  0  0  0  0
    0.0566    1.1335    0.0000 C   0  0  0  0  0  0  0  0  0  0  0  0
   -1.3649    0.6542    0.0000 C   0  0  0  0  0  0  0  0  0  0  0  0
    6.0877    1.0264    0.0000 C   0  0  0  0  0  0  0  0  0  0  0  0
   -0.5347   -1.8076    0.0000 C   0  0  0  0  0  0  0  0  0  0  0  0
    7.3379   -1.7005    0.0000 C   0  0  0  0  0  0  0  0  0  0  0  0
   -1.6605   -0.8163    0.0000 C   0  0  0  0  0  0  0  0  0  0  0  0
   -2.4905    1.6457    0.0000 C   0  0  0  0  0  0  0  0  0  0  0  0
    7.5809    0.8861    0.0000 C   0  0  0  0  0  0  0  0  0  0  0  0
    8.2062   -0.4774    0.0000 C   0  0  0  0  0  0  0  0  0  0  0  0
   -3.3205    4.1075    0.0000 C   0  0  0  0  0  0  0  0  0  0  0  0
   -4.4463    5.0990    0.0000 C   0  0  0  0  0  0  0  0  0  0  0  0
   -2.3292    5.2333    0.0000 C   0  0  0  0  0  0  0  0  0  0  0  0
   -4.3120    2.9819    0.0000 C   0  0  0  0  0  0  0  0  0  0  0  0
  1 18  2  0  0  0  0
  2  6  2  0  0  0  0
  2  9  1  0  0  0  0
  3  7  1  0  0  0  0
  3 10  1  0  0  0  0
  4  7  2  0  0  0  0
  4 11  1  0  0  0  0
  5 18  1  0  0  0  0
  5 21  1  0  0  0  0
  6  7  1  0  0  0  0
  6  8  1  0  0  0  0
  8 10  1  0  0  0  0
  8 14  2  0  0  0  0
  9 11  1  0  0  0  0
  9 12  2  0  0  0  0
 10 16  2  0  0  0  0
 11 15  2  0  0  0  0
 12 13  1  0  0  0  0
 13 17  2  0  0  0  0
 13 18  1  0  0  0  0
 14 19  1  0  0  0  0
 15 17  1  0  0  0  0
 16 20  1  0  0  0  0
 19 20  2  0  0  0  0
 21 22  1  0  0  0  0
 21 23  1  0  0  0  0
 21 24  1  0  0  0  0
M  END
> <Value>
6.599997654072044

> <Relation>
=

> <SourceURI>
mol:CHEMBL1969264

$$$$

Generated by Molecular Materials Informatics

 18 20  0  0  0  0  0  0  0  0999 V2000
    2.8874    2.3021    0.0000 I   0  0  0  0  0  0  0  0  0  0  0  0
   -5.2198   -3.2961    0.0000 Cl  0  0  0  0  0  0  0  0  0  0  0  0
    2.8874   -3.6979    0.0000 O   0  0  0  0  0  0  0  0  0  0  0  0
    1.5883   -1.4479    0.0000 N   0  0  0  0  0  0  0  0  0  0  0  0
    0.1618    0.5156    0.0000 N   0  0  0  0  0  0  0  0  0  0  0  0
    4.1865   -1.4479    0.0000 N   0  0  0  0  0  0  0  0  0  0  0  0
    1.5883    0.0521    0.0000 C   0  0  0  0  0  0  0  0  0  0  0  0
   -0.7198   -0.6979    0.0000 C   0  0  0  0  0  0  0  0  0  0  0  0
    0.1618   -1.9115    0.0000 C   0  0  0  0  0  0  0  0  0  0  0  0
    2.8874   -2.1979    0.0000 C   0  0  0  0  0  0  0  0  0  0  0  0
    2.8874    0.8021    0.0000 C   0  0  0  0  0  0  0  0  0  0  0  0
   -2.2198   -0.6979    0.0000 C   0  0  0  0  0  0  0  0  0  0  0  0
    4.1865    0.0521    0.0000 C   0  0  0  0  0  0  0  0  0  0  0  0
   -2.9698   -1.9970    0.0000 C   0  0  0  0  0  0  0  0  0  0  0  0
   -2.9698    0.6010    0.0000 C   0  0  0  0  0  0  0  0  0  0  0  0
   -4.4698   -1.9970    0.0000 C   0  0  0  0  0  0  0  0  0  0  0  0
   -4.4698    0.6010    0.0000 C   0  0  0  0  0  0  0  0  0  0  0  0
   -5.2198   -0.6979    0.0000 C   0  0  0  0  0  0  0  0  0  0  0  0
  1 11  1  0  0  0  0
  2 16  1  0  0  0  0
  3 10  2  0  0  0  0
  4  7  1  0  0  0  0
  4  9  1  0  0  0  0
  4 10  1  0  0  0  0
  5  7  2  0  0  0  0
  5  8  1  0  0  0  0
  6 10  1  0  0  0  0
  6 13  1  0  0  0  0
  7 11  1  0  0  0  0
  8  9  2  0  0  0  0
  8 12  1  0  0  0  0
 11 13  2  0  0  0  0
 12 14  2  0  0  0  0
 12 15  1  0  0  0  0
 14 16  1  0  0  0  0
 15 17  2  0  0  0  0
 16 18  2  0  0  0  0
 17 18  1  0  0  0  0
M  END
> <Value>
5.899998417198648

> <Relation>
<

> <SourceURI>
mol:CHEMBL1982610

$$$$

Generated by Molecular Materials Informatics

 39 44  0  0  0  0  0  0  0  0999 V2000
   10.2954   -5.9130    0.0000 F   0  0  0  0  0  0  0  0  0  0  0  0
   12.1856   -4.9499    0.0000 F   0  0  0  0  0  0  0  0  0  0  0  0
    9.3323   -4.0228    0.0000 F   0  0  0  0  0  0  0  0  0  0  0  0
   -8.2897   -0.7957    0.0000 O   0  0  0  0  0  0  0  0  0  0  0  0
   -8.2897    1.6312    0.0000 O   0  0  0  0  0  0  0  0  0  0  0  0
    7.7480   -1.1422    0.0000 O   0  0  0  0  0  0  0  0  0  0  0  0
   -0.5919   -1.5868    0.0000 N   0  0  0  0  0  0  0  0  0  0  0  0
   -1.3419   -2.8859    0.0000 N   0  0  0  0  0  0  0  0  0  0  0  0
   -1.1321    0.9545    0.0000 N   0  0  0  0  0  0  0  0  0  0  0  0
    1.8790   -2.3897    0.0000 N   0  0  0  0  0  0  0  0  0  0  0  0
    7.2078    1.3990    0.0000 N   0  0  0  0  0  0  0  0  0  0  0  0
    9.6787    0.5961    0.0000 N   0  0  0  0  0  0  0  0  0  0  0  0
   -1.5957   -0.4722    0.0000 C   0  0  0  0  0  0  0  0  0  0  0  0
   -2.9659   -1.0822    0.0000 C   0  0  0  0  0  0  0  0  0  0  0  0
    0.8752   -1.2750    0.0000 C   0  0  0  0  0  0  0  0  0  0  0  0
    1.3389    0.1516    0.0000 C   0  0  0  0  0  0  0  0  0  0  0  0
   -4.2650   -0.3322    0.0000 C   0  0  0  0  0  0  0  0  0  0  0  0
   -2.8091   -2.5740    0.0000 C   0  0  0  0  0  0  0  0  0  0  0  0
    0.3350    1.2663    0.0000 C   0  0  0  0  0  0  0  0  0  0  0  0
    2.8061    0.4634    0.0000 C   0  0  0  0  0  0  0  0  0  0  0  0
   -5.5641   -1.0822    0.0000 C   0  0  0  0  0  0  0  0  0  0  0  0
   -6.8632   -0.3322    0.0000 C   0  0  0  0  0  0  0  0  0  0  0  0
   -6.8632    1.1678    0.0000 C   0  0  0  0  0  0  0  0  0  0  0  0
   -4.2650    1.1678    0.0000 C   0  0  0  0  0  0  0  0  0  0  0  0
   -5.5641    1.9178    0.0000 C   0  0  0  0  0  0  0  0  0  0  0  0
    3.2696    1.8901    0.0000 C   0  0  0  0  0  0  0  0  0  0  0  0
    3.8098   -0.6513    0.0000 C   0  0  0  0  0  0  0  0  0  0  0  0
    5.7405    1.0872    0.0000 C   0  0  0  0  0  0  0  0  0  0  0  0
   -9.1713    0.4178    0.0000 C   0  0  0  0  0  0  0  0  0  0  0  0
    4.7369    2.2020    0.0000 C   0  0  0  0  0  0  0  0  0  0  0  0
    5.2770   -0.3393    0.0000 C   0  0  0  0  0  0  0  0  0  0  0  0
   11.2225   -3.0599    0.0000 C   0  0  0  0  0  0  0  0  0  0  0  0
   10.7591   -4.4864    0.0000 C   0  0  0  0  0  0  0  0  0  0  0  0
   10.6823   -0.5186    0.0000 C   0  0  0  0  0  0  0  0  0  0  0  0
    8.2114    0.2843    0.0000 C   0  0  0  0  0  0  0  0  0  0  0  0
   10.2189   -1.9451    0.0000 C   0  0  0  0  0  0  0  0  0  0  0  0
   12.6898   -2.7479    0.0000 C   0  0  0  0  0  0  0  0  0  0  0  0
   12.1496   -0.2066    0.0000 C   0  0  0  0  0  0  0  0  0  0  0  0
   13.1532   -1.3213    0.0000 C   0  0  0  0  0  0  0  0  0  0  0  0
  1 33  1  0  0  0  0
  2 33  1  0  0  0  0
  3 33  1  0  0  0  0
  4 22  1  0  0  0  0
  4 29  1  0  0  0  0
  5 23  1  0  0  0  0
  5 29  1  0  0  0  0
  6 35  2  0  0  0  0
  7  8  1  0  0  0  0
  7 13  1  0  0  0  0
  7 15  1  0  0  0  0
  8 18  2  0  0  0  0
  9 13  1  0  0  0  0
  9 19  2  0  0  0  0
 10 15  1  0  0  0  0
 11 28  1  0  0  0  0
 11 35  1  0  0  0  0
 12 34  1  0  0  0  0
 12 35  1  0  0  0  0
 13 14  2  0  0  0  0
 14 17  1  0  0  0  0
 14 18  1  0  0  0  0
 15 16  2  0  0  0  0
 16 19  1  0  0  0  0
 16 20  1  0  0  0  0
 17 21  1  0  0  0  0
 17 24  2  0  0  0  0
 20 26  2  0  0  0  0
 20 27  1  0  0  0  0
 21 22  2  0  0  0  0
 22 23  1  0  0  0  0
 23 25  2  0  0  0  0
 24 25  1  0  0  0  0
 26 30  1  0  0  0  0
 27 31  2  0  0  0  0
 28 30  2  0  0  0  0
 28 31  1  0  0  0  0
 32 33  1  0  0  0  0
 32 36  2  0  0  0  0
 32 37  1  0  0  0  0
 34 36  1  0  0  0  0
 34 38  2  0  0  0  0
 37 39  2  0  0  0  0
 38 39  1  0  0  0  0
M  END
> <Value>
5.300000202445418

> <Relation>
<

> <SourceURI>
mol:CHEMBL1977134

$$$$

Generated by Molecular Materials Informatics

 17 19  0  0  0  0  0  0  0  0999 V2000
    8.1246    0.7048    0.0000 S   0  0  0  0  0  0  0  0  0  0  0  0
    6.6246   -1.8932    0.0000 O   0  0  0  0  0  0  0  0  0  0  0  0
    4.3747    2.0038    0.0000 N   0  0  0  0  0  0  0  0  0  0  0  0
   -0.8753    0.7048    0.0000 N   0  0  0  0  0  0  0  0  0  0  0  0
    3.6247    0.7048    0.0000 C   0  0  0  0  0  0  0  0  0  0  0  0
    4.3747   -0.5943    0.0000 C   0  0  0  0  0  0  0  0  0  0  0  0
    2.1247    0.7048    0.0000 C   0  0  0  0  0  0  0  0  0  0  0  0
    5.8746   -0.5943    0.0000 C   0  0  0  0  0  0  0  0  0  0  0  0
    1.3747   -0.5943    0.0000 C   0  0  0  0  0  0  0  0  0  0  0  0
    6.6246    0.7048    0.0000 C   0  0  0  0  0  0  0  0  0  0  0  0
    3.6247   -1.8932    0.0000 C   0  0  0  0  0  0  0  0  0  0  0  0
    2.1247   -1.8932    0.0000 C   0  0  0  0  0  0  0  0  0  0  0  0
    5.8746    2.0038    0.0000 C   0  0  0  0  0  0  0  0  0  0  0  0
    1.3747    2.0038    0.0000 C   0  0  0  0  0  0  0  0  0  0  0  0
   -0.1253   -0.5943    0.0000 C   0  0  0  0  0  0  0  0  0  0  0  0
   -0.1253    2.0038    0.0000 C   0  0  0  0  0  0  0  0  0  0  0  0
    8.8746    2.0038    0.0000 C   0  0  0  0  0  0  0  0  0  0  0  0
  1 10  1  0  0  0  0
  1 17  1  0  0  0  0
  2  8  1  0  0  0  0
  3  5  2  0  0  0  0
  3 13  1  0  0  0  0
  4 15  1  0  0  0  0
  4 16  2  0  0  0  0
  5  6  1  0  0  0  0
  5  7  1  0  0  0  0
  6  8  2  0  0  0  0
  6 11  1  0  0  0  0
  7  9  1  0  0  0  0
  7 14  2  0  0  0  0
  8 10  1  0  0  0  0
  9 12  1  0  0  0  0
  9 15  2  0  0  0  0
 10 13  2  0  0  0  0
 11 12  2  0  0  0  0
 14 16  1  0  0  0  0
M  END
> <Value>
6.599997654072044

> <Relation>
=

> <SourceURI>
mol:CHEMBL2006933

$$$$

Generated by Molecular Materials Informatics

 22 25  0  0  0  0  0  0  0  0999 V2000
    5.1889   -1.8677    0.0000 S   0  0  0  0  0  0  0  0  0  0  0  0
   -3.4351   -4.3015    0.0000 O   0  0  0  0  0  0  0  0  0  0  0  0
    3.9234    3.0569    0.0000 N   0  0  0  0  0  0  0  0  0  0  0  0
    5.1541    2.1993    0.0000 N   0  0  0  0  0  0  0  0  0  0  0  0
    3.2190    0.7342    0.0000 C   0  0  0  0  0  0  0  0  0  0  0  0
    2.7274    2.1514    0.0000 C   0  0  0  0  0  0  0  0  0  0  0  0
    1.2278    2.1218    0.0000 C   0  0  0  0  0  0  0  0  0  0  0  0
    0.7925    0.6863    0.0000 C   0  0  0  0  0  0  0  0  0  0  0  0
    4.7187    0.7638    0.0000 C   0  0  0  0  0  0  0  0  0  0  0  0
    2.0232   -0.1713    0.0000 C   0  0  0  0  0  0  0  0  0  0  0  0
   -0.6684    0.3456    0.0000 C   0  0  0  0  0  0  0  0  0  0  0  0
    5.6241   -0.4322    0.0000 C   0  0  0  0  0  0  0  0  0  0  0  0
    0.2023    3.2165    0.0000 C   0  0  0  0  0  0  0  0  0  0  0  0
   -1.6939    1.4404    0.0000 C   0  0  0  0  0  0  0  0  0  0  0  0
   -1.2584    2.8758    0.0000 C   0  0  0  0  0  0  0  0  0  0  0  0
    7.1240   -0.4026    0.0000 C   0  0  0  0  0  0  0  0  0  0  0  0
   -1.1037   -1.0898    0.0000 C   0  0  0  0  0  0  0  0  0  0  0  0
    6.4196   -2.7251    0.0000 C   0  0  0  0  0  0  0  0  0  0  0  0
    7.6154   -1.8197    0.0000 C   0  0  0  0  0  0  0  0  0  0  0  0
   -1.5390   -2.5253    0.0000 C   0  0  0  0  0  0  0  0  0  0  0  0
   -1.9742   -3.9608    0.0000 C   0  0  0  0  0  0  0  0  0  0  0  0
   -3.8704   -5.7369    0.0000 C   0  0  0  0  0  0  0  0  0  0  0  0
  1 12  1  0  0  0  0
  1 18  1  0  0  0  0
  2 21  1  0  0  0  0
  2 22  1  0  0  0  0
  3  4  1  0  0  0  0
  3  6  1  0  0  0  0
  4  9  2  0  0  0  0
  5  6  2  0  0  0  0
  5  9  1  0  0  0  0
  5 10  1  0  0  0  0
  6  7  1  0  0  0  0
  7  8  2  0  0  0  0
  7 13  1  0  0  0  0
  8 10  1  0  0  0  0
  8 11  1  0  0  0  0
  9 12  1  0  0  0  0
 11 14  2  0  0  0  0
 11 17  1  0  0  0  0
 12 16  2  0  0  0  0
 13 15  2  0  0  0  0
 14 15  1  0  0  0  0
 16 19  1  0  0  0  0
 17 20  3  0  0  0  0
 18 19  2  0  0  0  0
 20 21  1  0  0  0  0
M  END
> <Value>
5.300000202445418

> <Relation>
<

> <SourceURI>
mol:CHEMBL1985206

$$$$

Generated by Molecular Materials Informatics

 28 32  0  0  0  0  0  0  0  0999 V2000
   -3.0306    2.2199    0.0000 S   0  0  0  0  0  0  0  0  0  0  0  0
   -4.9941   -1.8047    0.0000 N   0  0  0  0  0  0  0  0  0  0  0  0
    1.8876   -3.0183    0.0000 N   0  0  0  0  0  0  0  0  0  0  0  0
    1.8876   -0.5912    0.0000 N   0  0  0  0  0  0  0  0  0  0  0  0
   -7.2441   -0.5057    0.0000 N   0  0  0  0  0  0  0  0  0  0  0  0
  -11.1641    4.0741    0.0000 N   0  0  0  0  0  0  0  0  0  0  0  0
   -4.9941    0.7933    0.0000 C   0  0  0  0  0  0  0  0  0  0  0  0
   -3.4941    0.7933    0.0000 C   0  0  0  0  0  0  0  0  0  0  0  0
   -5.4577    2.2199    0.0000 C   0  0  0  0  0  0  0  0  0  0  0  0
   -2.7441   -0.5057    0.0000 C   0  0  0  0  0  0  0  0  0  0  0  0
   -5.7441   -0.5057    0.0000 C   0  0  0  0  0  0  0  0  0  0  0  0
   -6.8843    2.6835    0.0000 C   0  0  0  0  0  0  0  0  0  0  0  0
   -4.2441    3.1015    0.0000 C   0  0  0  0  0  0  0  0  0  0  0  0
   -3.4941   -1.8047    0.0000 C   0  0  0  0  0  0  0  0  0  0  0  0
   -1.2441   -0.5057    0.0000 C   0  0  0  0  0  0  0  0  0  0  0  0
    1.0059   -1.8047    0.0000 C   0  0  0  0  0  0  0  0  0  0  0  0
    3.3141   -2.5547    0.0000 C   0  0  0  0  0  0  0  0  0  0  0  0
    3.3141   -1.0547    0.0000 C   0  0  0  0  0  0  0  0  0  0  0  0
   -0.4941   -1.8047    0.0000 C   0  0  0  0  0  0  0  0  0  0  0  0
   -7.9990    1.6797    0.0000 C   0  0  0  0  0  0  0  0  0  0  0  0
   -7.1961    4.1506    0.0000 C   0  0  0  0  0  0  0  0  0  0  0  0
    4.6132   -3.3047    0.0000 C   0  0  0  0  0  0  0  0  0  0  0  0
    4.6132   -0.3047    0.0000 C   0  0  0  0  0  0  0  0  0  0  0  0
   -9.4255    2.1433    0.0000 C   0  0  0  0  0  0  0  0  0  0  0  0
   -8.6226    4.6143    0.0000 C   0  0  0  0  0  0  0  0  0  0  0  0
   -9.7374    3.6104    0.0000 C   0  0  0  0  0  0  0  0  0  0  0  0
    5.9123   -2.5547    0.0000 C   0  0  0  0  0  0  0  0  0  0  0  0
    5.9123   -1.0547    0.0000 C   0  0  0  0  0  0  0  0  0  0  0  0
  1  8  1  0  0  0  0
  1 13  1  0  0  0  0
  2 11  1  0  0  0  0
  2 14  2  0  0  0  0
  3 16  2  0  0  0  0
  3 17  1  0  0  0  0
  4 16  1  0  0  0  0
  4 18  1  0  0  0  0
  5 11  1  0  0  0  0
  6 26  1  0  0  0  0
  7  8  1  0  0  0  0
  7  9  1  0  0  0  0
  7 11  2  0  0  0  0
  8 10  2  0  0  0  0
  9 12  1  0  0  0  0
  9 13  2  0  0  0  0
 10 14  1  0  0  0  0
 15 10  1  0  0  0  0
 12 20  2  0  0  0  0
 12 21  1  0  0  0  0
 15 19  2  0  0  0  0
 16 19  1  0  0  0  0
 17 18  1  0  0  0  0
 17 22  2  0  0  0  0
 18 23  2  0  0  0  0
 20 24  1  0  0  0  0
 21 25  2  0  0  0  0
 22 27  1  0  0  0  0
 23 28  1  0  0  0  0
 24 26  2  0  0  0  0
 25 26  1  0  0  0  0
 27 28  2  0  0  0  0
M  END
> <Value>
5.899998417198648

> <Relation>
<

> <SourceURI>
mol:CHEMBL1988300

$$$$

Generated by Molecular Materials Informatics

 34 38  0  0  0  0  0  0  0  0999 V2000
   -2.1674    3.5993    0.0000 C   0  0  0  0  0  0  0  0  0  0  0  0
    0.5355    3.5993    0.0000 C   0  0  0  0  0  0  0  0  0  0  0  0
    1.4845    6.0178    0.0000 C   0  0  0  0  0  0  0  0  0  0  0  0
    4.0536    6.4049    0.0000 C   0  0  0  0  0  0  0  0  0  0  0  0
    4.2773    4.9218    0.0000 C   0  0  0  0  0  0  0  0  0  0  0  0
    3.1045    3.9866    0.0000 C   0  0  0  0  0  0  0  0  0  0  0  0
    0.8693    2.1369    0.0000 C   0  0  0  0  0  0  0  0  0  0  0  0
    2.9004    0.5171    0.0000 C   0  0  0  0  0  0  0  0  0  0  0  0
    1.9653   -0.6558    0.0000 C   0  0  0  0  0  0  0  0  0  0  0  0
    1.0789   -6.5194    0.0000 O   0  0  0  0  0  0  0  0  0  0  0  0
   -0.4044   -6.7430    0.0000 C   0  0  0  0  0  0  0  0  0  0  0  0
   -0.9524   -8.1392    0.0000 O   0  0  0  0  0  0  0  0  0  0  0  0
   -1.3396   -5.5703    0.0000 C   0  0  0  0  0  0  0  0  0  0  0  0
   -2.8229   -5.7938    0.0000 C   0  0  0  0  0  0  0  0  0  0  0  0
   -3.7580   -4.6210    0.0000 C   0  0  0  0  0  0  0  0  0  0  0  0
   -3.2100   -3.2247    0.0000 C   0  0  0  0  0  0  0  0  0  0  0  0
   -4.1452   -2.0520    0.0000 N   0  0  0  0  0  0  0  0  0  0  0  0
   -3.5972   -0.6558    0.0000 C   0  0  0  0  0  0  0  0  0  0  0  0
   -4.5325    0.5171    0.0000 N   0  0  0  0  0  0  0  0  0  0  0  0
   -3.9845    1.9133    0.0000 C   0  0  0  0  0  0  0  0  0  0  0  0
   -2.5013    2.1369    0.0000 C   0  0  0  0  0  0  0  0  0  0  0  0
   -0.8160    4.2502    0.0000 N   0  0  0  0  0  0  0  0  0  0  0  0
    1.7082    4.5345    0.0000 C   0  0  0  0  0  0  0  0  0  0  0  0
    0.0884    6.5658    0.0000 F   0  0  0  0  0  0  0  0  0  0  0  0
    2.6573    6.9529    0.0000 C   0  0  0  0  0  0  0  0  0  0  0  0
    3.3280    2.5033    0.0000 F   0  0  0  0  0  0  0  0  0  0  0  0
    2.3524    1.9133    0.0000 C   0  0  0  0  0  0  0  0  0  0  0  0
    4.3836    0.2935    0.0000 Cl  0  0  0  0  0  0  0  0  0  0  0  0
    0.4820   -0.4322    0.0000 C   0  0  0  0  0  0  0  0  0  0  0  0
   -0.0660    0.9642    0.0000 C   0  0  0  0  0  0  0  0  0  0  0  0
   -1.5660    0.9642    0.0000 C   0  0  0  0  0  0  0  0  0  0  0  0
   -2.1140   -0.4322    0.0000 N   0  0  0  0  0  0  0  0  0  0  0  0
   -1.7269   -3.0012    0.0000 C   0  0  0  0  0  0  0  0  0  0  0  0
   -0.7916   -4.1739    0.0000 C   0  0  0  0  0  0  0  0  0  0  0  0
 21  1  1  0  0  0  0
  1 22  1  0  0  0  0
  2  7  1  0  0  0  0
  2 22  2  0  0  0  0
  2 23  1  0  0  0  0
 23  3  1  0  0  0  0
  3 24  1  0  0  0  0
  3 25  2  0  0  0  0
  4  5  2  0  0  0  0
 25  4  1  0  0  0  0
  5  6  1  0  0  0  0
 23  6  2  0  0  0  0
  6 26  1  0  0  0  0
  7 27  1  0  0  0  0
  7 30  2  0  0  0  0
  8  9  1  0  0  0  0
 27  8  2  0  0  0  0
  8 28  1  0  0  0  0
  9 29  2  0  0  0  0
 11 10  2  0  0  0  0
 11 12  1  0  0  0  0
 11 13  1  0  0  0  0
 13 14  1  0  0  0  0
 13 34  2  0  0  0  0
 14 15  2  0  0  0  0
 15 16  1  0  0  0  0
 16 17  1  0  0  0  0
 16 33  2  0  0  0  0
 18 17  1  0  0  0  0
 18 19  2  0  0  0  0
 18 32  1  0  0  0  0
 20 19  1  0  0  0  0
 20 21  2  0  0  0  0
 21 31  1  0  0  0  0
 29 30  1  0  0  0  0
 30 31  1  0  0  0  0
 31 32  2  0  0  0  0
 33 34  1  0  0  0  0
M  END
> <Value>
5.59999938302362

> <Relation>
<

> <SourceURI>
mol:CHEMBL259084

$$$$

Generated by Molecular Materials Informatics

 34 38  0  0  0  0  0  0  0  0999 V2000
   -4.6964   -0.7439    0.0000 O   0  0  0  0  0  0  0  0  0  0  0  0
   -2.6122   -6.9413    0.0000 O   0  0  0  0  0  0  0  0  0  0  0  0
   -5.5467   -7.5650    0.0000 O   0  0  0  0  0  0  0  0  0  0  0  0
   -1.7618    2.3068    0.0000 N   0  0  0  0  0  0  0  0  0  0  0  0
   -2.6435    1.0934    0.0000 N   0  0  0  0  0  0  0  0  0  0  0  0
   -2.2253   -1.5468    0.0000 N   0  0  0  0  0  0  0  0  0  0  0  0
    5.9358   -0.9113    0.0000 N   0  0  0  0  0  0  0  0  0  0  0  0
    3.7187   -1.8984    0.0000 N   0  0  0  0  0  0  0  0  0  0  0  0
    5.1858   -2.2104    0.0000 N   0  0  0  0  0  0  0  0  0  0  0  0
   -0.3353    0.3434    0.0000 C   0  0  0  0  0  0  0  0  0  0  0  0
   -0.3353    1.8434    0.0000 C   0  0  0  0  0  0  0  0  0  0  0  0
   -1.7618   -0.1202    0.0000 C   0  0  0  0  0  0  0  0  0  0  0  0
    2.2629    0.3434    0.0000 C   0  0  0  0  0  0  0  0  0  0  0  0
    0.9638   -0.4066    0.0000 C   0  0  0  0  0  0  0  0  0  0  0  0
    3.5618   -0.4066    0.0000 C   0  0  0  0  0  0  0  0  0  0  0  0
    0.9638    2.5934    0.0000 C   0  0  0  0  0  0  0  0  0  0  0  0
    2.2629    1.8434    0.0000 C   0  0  0  0  0  0  0  0  0  0  0  0
   -3.6926   -1.8586    0.0000 C   0  0  0  0  0  0  0  0  0  0  0  0
   -4.1562   -3.2853    0.0000 C   0  0  0  0  0  0  0  0  0  0  0  0
    4.9322    0.2034    0.0000 C   0  0  0  0  0  0  0  0  0  0  0  0
   -3.6160   -5.8266    0.0000 C   0  0  0  0  0  0  0  0  0  0  0  0
   -3.1524   -4.3999    0.0000 C   0  0  0  0  0  0  0  0  0  0  0  0
   -5.0831   -6.1384    0.0000 C   0  0  0  0  0  0  0  0  0  0  0  0
   -5.6233   -3.5972    0.0000 C   0  0  0  0  0  0  0  0  0  0  0  0
    7.4276   -0.7544    0.0000 C   0  0  0  0  0  0  0  0  0  0  0  0
   -6.0869   -5.0237    0.0000 C   0  0  0  0  0  0  0  0  0  0  0  0
    8.3093   -1.9681    0.0000 C   0  0  0  0  0  0  0  0  0  0  0  0
    9.8011   -1.8112    0.0000 C   0  0  0  0  0  0  0  0  0  0  0  0
    7.6993   -3.3384    0.0000 C   0  0  0  0  0  0  0  0  0  0  0  0
   -3.0758   -8.3679    0.0000 C   0  0  0  0  0  0  0  0  0  0  0  0
   10.6827   -3.0248    0.0000 C   0  0  0  0  0  0  0  0  0  0  0  0
    8.5809   -4.5519    0.0000 C   0  0  0  0  0  0  0  0  0  0  0  0
   -7.0138   -7.8768    0.0000 C   0  0  0  0  0  0  0  0  0  0  0  0
   10.0727   -4.3952    0.0000 C   0  0  0  0  0  0  0  0  0  0  0  0
  1 18  2  0  0  0  0
  2 21  1  0  0  0  0
  2 30  1  0  0  0  0
  3 23  1  0  0  0  0
  3 33  1  0  0  0  0
  4  5  1  0  0  0  0
  4 11  1  0  0  0  0
  5 12  2  0  0  0  0
  6 12  1  0  0  0  0
  6 18  1  0  0  0  0
  7  9  1  0  0  0  0
  7 20  1  0  0  0  0
  7 25  1  0  0  0  0
  8  9  2  0  0  0  0
  8 15  1  0  0  0  0
 10 11  1  0  0  0  0
 10 12  1  0  0  0  0
 10 14  2  0  0  0  0
 11 16  2  0  0  0  0
 13 14  1  0  0  0  0
 13 15  1  0  0  0  0
 13 17  2  0  0  0  0
 15 20  2  0  0  0  0
 16 17  1  0  0  0  0
 18 19  1  0  0  0  0
 19 22  1  0  0  0  0
 19 24  2  0  0  0  0
 21 22  2  0  0  0  0
 21 23  1  0  0  0  0
 23 26  2  0  0  0  0
 24 26  1  0  0  0  0
 25 27  1  0  0  0  0
 27 28  2  0  0  0  0
 27 29  1  0  0  0  0
 28 31  1  0  0  0  0
 29 32  2  0  0  0  0
 31 34  2  0  0  0  0
 32 34  1  0  0  0  0
M  END
> <Value>
7.50003813440381

> <Relation>
=

> <SourceURI>
mol:CHEMBL1991078

$$$$

Generated by Molecular Materials Informatics

 33 37  0  0  0  0  0  0  0  0999 V2000
   -3.3528    4.9138    0.0000 C   0  0  0  0  0  0  0  0  0  0  0  0
   -2.8893    3.4872    0.0000 C   0  0  0  0  0  0  0  0  0  0  0  0
   -4.1028    2.6056    0.0000 C   0  0  0  0  0  0  0  0  0  0  0  0
   -4.1028    1.1056    0.0000 N   0  0  0  0  0  0  0  0  0  0  0  0
   -5.3162    3.4872    0.0000 C   0  0  0  0  0  0  0  0  0  0  0  0
   -4.8528    4.9138    0.0000 C   0  0  0  0  0  0  0  0  0  0  0  0
   -5.4019    0.3556    0.0000 C   0  0  0  0  0  0  0  0  0  0  0  0
   -5.4019   -1.1444    0.0000 C   0  0  0  0  0  0  0  0  0  0  0  0
   -4.1028   -1.8944    0.0000 C   0  0  0  0  0  0  0  0  0  0  0  0
   -2.8037   -1.1444    0.0000 C   0  0  0  0  0  0  0  0  0  0  0  0
   -2.8037    0.3556    0.0000 C   0  0  0  0  0  0  0  0  0  0  0  0
   -1.5048    1.1056    0.0000 N   0  0  0  0  0  0  0  0  0  0  0  0
   -0.2057   -1.1444    0.0000 N   0  0  0  0  0  0  0  0  0  0  0  0
   -1.5048   -1.8944    0.0000 C   0  0  0  0  0  0  0  0  0  0  0  0
   -4.1028   -3.3944    0.0000 C   0  0  0  0  0  0  0  0  0  0  0  0
   -6.7010   -1.8944    0.0000 C   0  0  0  0  0  0  0  0  0  0  0  0
   -6.7010   -3.3944    0.0000 C   0  0  0  0  0  0  0  0  0  0  0  0
   -7.9999   -1.1444    0.0000 O   0  0  0  0  0  0  0  0  0  0  0  0
   -6.7010    1.1056    0.0000 O   0  0  0  0  0  0  0  0  0  0  0  0
    6.2896   -1.8944    0.0000 N   0  0  0  0  0  0  0  0  0  0  0  0
    7.5885   -1.1444    0.0000 C   0  0  0  0  0  0  0  0  0  0  0  0
    8.8876   -1.8944    0.0000 C   0  0  0  0  0  0  0  0  0  0  0  0
    8.8876   -3.3944    0.0000 N   0  0  0  0  0  0  0  0  0  0  0  0
    7.5885   -4.1444    0.0000 C   0  0  0  0  0  0  0  0  0  0  0  0
    6.2896   -3.3944    0.0000 C   0  0  0  0  0  0  0  0  0  0  0  0
    4.9905   -1.1444    0.0000 C   0  0  0  0  0  0  0  0  0  0  0  0
    4.9905    0.3556    0.0000 C   0  0  0  0  0  0  0  0  0  0  0  0
    3.6914    1.1056    0.0000 N   0  0  0  0  0  0  0  0  0  0  0  0
    2.3923    0.3556    0.0000 C   0  0  0  0  0  0  0  0  0  0  0  0
    1.0934    1.1056    0.0000 N   0  0  0  0  0  0  0  0  0  0  0  0
    2.3923   -1.1444    0.0000 C   0  0  0  0  0  0  0  0  0  0  0  0
    3.6914   -1.8944    0.0000 C   0  0  0  0  0  0  0  0  0  0  0  0
   -0.2057    0.3556    0.0000 C   0  0  0  0  0  0  0  0  0  0  0  0
  1  2  1  0  0  0  0
  2  3  1  0  0  0  0
  3  4  1  0  0  0  0
  3  5  1  0  0  0  0
  4  7  1  0  0  0  0
  4 11  1  0  0  0  0
  5  6  1  0  0  0  0
  6  1  1  0  0  0  0
  7 19  2  0  0  0  0
  8  7  1  0  0  0  0
  8 16  1  0  0  0  0
  9  8  2  0  0  0  0
 10  9  1  0  0  0  0
 11 12  1  0  0  0  0
 11 10  2  0  0  0  0
 12 33  2  0  0  0  0
 13 14  2  0  0  0  0
 14 10  1  0  0  0  0
 15  9  1  0  0  0  0
 16 18  2  0  0  0  0
 17 16  1  0  0  0  0
 20 21  1  0  0  0  0
 21 22  1  0  0  0  0
 22 23  1  0  0  0  0
 23 24  1  0  0  0  0
 24 25  1  0  0  0  0
 25 20  1  0  0  0  0
 26 20  1  0  0  0  0
 26 32  1  0  0  0  0
 27 26  2  0  0  0  0
 27 28  1  0  0  0  0
 28 29  2  0  0  0  0
 29 30  1  0  0  0  0
 31 29  1  0  0  0  0
 32 31  2  0  0  0  0
 33 30  1  0  0  0  0
 33 13  1  0  0  0  0
M  END
> <Value>
6.900008766455316

> <Error>
0.0

> <Relation>
=

> <SourceURI>
mol:CHEMBL189963

$$$$

Generated by Molecular Materials Informatics

 26 28  0  0  0  0  0  0  0  0999 V2000
   -2.5656    0.6936    0.0000 O   0  0  0  0  0  0  0  0  0  0  0  0
    0.0325   -3.8062    0.0000 O   0  0  0  0  0  0  0  0  0  0  0  0
    6.5274   -1.5563    0.0000 O   0  0  0  0  0  0  0  0  0  0  0  0
   -1.2666   -1.5563    0.0000 N   0  0  0  0  0  0  0  0  0  0  0  0
   -7.7616   -3.8062    0.0000 N   0  0  0  0  0  0  0  0  0  0  0  0
    2.6304   -0.8063    0.0000 N   0  0  0  0  0  0  0  0  0  0  0  0
   -3.8647   -3.0562    0.0000 C   0  0  0  0  0  0  0  0  0  0  0  0
   -3.8647   -1.5563    0.0000 C   0  0  0  0  0  0  0  0  0  0  0  0
   -2.5656   -3.8062    0.0000 C   0  0  0  0  0  0  0  0  0  0  0  0
   -5.1635   -3.8062    0.0000 C   0  0  0  0  0  0  0  0  0  0  0  0
   -2.5656   -0.8063    0.0000 C   0  0  0  0  0  0  0  0  0  0  0  0
   -1.2666   -3.0562    0.0000 C   0  0  0  0  0  0  0  0  0  0  0  0
   -6.4626   -3.0562    0.0000 C   0  0  0  0  0  0  0  0  0  0  0  0
   -5.1635   -0.8063    0.0000 C   0  0  0  0  0  0  0  0  0  0  0  0
   -2.5656   -5.3062    0.0000 C   0  0  0  0  0  0  0  0  0  0  0  0
   -5.1635   -5.3062    0.0000 C   0  0  0  0  0  0  0  0  0  0  0  0
   -6.4626   -1.5563    0.0000 C   0  0  0  0  0  0  0  0  0  0  0  0
   -3.8647   -6.0561    0.0000 C   0  0  0  0  0  0  0  0  0  0  0  0
    0.0325   -0.8063    0.0000 C   0  0  0  0  0  0  0  0  0  0  0  0
    1.3313   -1.5563    0.0000 C   0  0  0  0  0  0  0  0  0  0  0  0
   -9.0605   -3.0562    0.0000 C   0  0  0  0  0  0  0  0  0  0  0  0
  -10.3596   -3.8062    0.0000 C   0  0  0  0  0  0  0  0  0  0  0  0
    3.9295   -1.5563    0.0000 C   0  0  0  0  0  0  0  0  0  0  0  0
  -11.6586   -3.0562    0.0000 C   0  0  0  0  0  0  0  0  0  0  0  0
    5.2283   -0.8063    0.0000 C   0  0  0  0  0  0  0  0  0  0  0  0
  -12.9577   -3.8062    0.0000 C   0  0  0  0  0  0  0  0  0  0  0  0
  1 11  2  0  0  0  0
  2 12  2  0  0  0  0
  3 25  1  0  0  0  0
  4 11  1  0  0  0  0
  4 12  1  0  0  0  0
  4 19  1  0  0  0  0
  5 13  1  0  0  0  0
  5 21  1  0  0  0  0
  6 20  1  0  0  0  0
  6 23  1  0  0  0  0
  7  8  1  0  0  0  0
  7  9  1  0  0  0  0
  7 10  2  0  0  0  0
  8 11  1  0  0  0  0
  8 14  2  0  0  0  0
  9 12  1  0  0  0  0
  9 15  2  0  0  0  0
 10 13  1  0  0  0  0
 10 16  1  0  0  0  0
 13 17  2  0  0  0  0
 14 17  1  0  0  0  0
 15 18  1  0  0  0  0
 16 18  2  0  0  0  0
 19 20  1  0  0  0  0
 21 22  1  0  0  0  0
 22 24  1  0  0  0  0
 23 25  1  0  0  0  0
 24 26  1  0  0  0  0
M  END
> <Value>
5.899998417198648

> <Relation>
<

> <SourceURI>
mol:CHEMBL1987359

$$$$

Generated by Molecular Materials Informatics

 21 23  0  0  0  0  0  0  0  0999 V2000
    0.2923   -1.9875    0.0000 O   0  0  0  0  0  0  0  0  0  0  0  0
    1.5914    3.2625    0.0000 O   0  0  0  0  0  0  0  0  0  0  0  0
    0.2923    2.5125    0.0000 N   0  0  0  0  0  0  0  0  0  0  0  0
    1.5914   -1.2375    0.0000 C   0  0  0  0  0  0  0  0  0  0  0  0
    1.5914    0.2625    0.0000 C   0  0  0  0  0  0  0  0  0  0  0  0
    0.2923    1.0125    0.0000 C   0  0  0  0  0  0  0  0  0  0  0  0
   -1.0068   -1.2375    0.0000 C   0  0  0  0  0  0  0  0  0  0  0  0
    2.8903   -1.9875    0.0000 C   0  0  0  0  0  0  0  0  0  0  0  0
   -1.0068    0.2625    0.0000 C   0  0  0  0  0  0  0  0  0  0  0  0
   -2.3057   -1.9875    0.0000 C   0  0  0  0  0  0  0  0  0  0  0  0
    2.8903    1.0125    0.0000 C   0  0  0  0  0  0  0  0  0  0  0  0
    4.1894   -1.2375    0.0000 C   0  0  0  0  0  0  0  0  0  0  0  0
    4.1894    0.2625    0.0000 C   0  0  0  0  0  0  0  0  0  0  0  0
    2.8903   -3.4875    0.0000 C   0  0  0  0  0  0  0  0  0  0  0  0
   -2.3057   -3.4875    0.0000 C   0  0  0  0  0  0  0  0  0  0  0  0
   -3.6048   -1.2375    0.0000 C   0  0  0  0  0  0  0  0  0  0  0  0
   -3.6048   -4.2375    0.0000 C   0  0  0  0  0  0  0  0  0  0  0  0
   -4.9039   -1.9875    0.0000 C   0  0  0  0  0  0  0  0  0  0  0  0
    1.5914   -4.2375    0.0000 C   0  0  0  0  0  0  0  0  0  0  0  0
   -4.9039   -3.4875    0.0000 C   0  0  0  0  0  0  0  0  0  0  0  0
    1.5914   -5.7375    0.0000 C   0  0  0  0  0  0  0  0  0  0  0  0
  1  4  1  0  0  0  0
  1  7  1  0  0  0  0
  3  2  1  0  0  0  0
  3  6  2  0  0  0  0
  4  5  1  0  0  0  0
  4  8  2  0  0  0  0
  5  6  1  0  0  0  0
  5 11  2  0  0  0  0
  6  9  1  0  0  0  0
  7  9  2  0  0  0  0
  7 10  1  0  0  0  0
  8 12  1  0  0  0  0
  8 14  1  0  0  0  0
 10 15  2  0  0  0  0
 10 16  1  0  0  0  0
 11 13  1  0  0  0  0
 12 13  2  0  0  0  0
 14 19  1  0  0  0  0
 15 17  1  0  0  0  0
 16 18  2  0  0  0  0
 17 20  2  0  0  0  0
 18 20  1  0  0  0  0
 19 21  2  0  0  0  0
M  END
> <Value>
5.40000018605658

> <Relation>
=

> <SourceURI>
mol:CHEMBL1977749

$$$$

Generated by Molecular Materials Informatics

 16 18  0  0  0  0  0  0  0  0999 V2000
   -1.1514   -1.6994    0.0000 S   0  0  0  0  0  0  0  0  0  0  0  0
    1.5742   -1.9860    0.0000 N   0  0  0  0  0  0  0  0  0  0  0  0
    2.8732    0.2640    0.0000 N   0  0  0  0  0  0  0  0  0  0  0  0
    1.5742    2.5140    0.0000 N   0  0  0  0  0  0  0  0  0  0  0  0
    0.2752    0.2640    0.0000 C   0  0  0  0  0  0  0  0  0  0  0  0
   -1.1514    0.7275    0.0000 C   0  0  0  0  0  0  0  0  0  0  0  0
    0.2752   -1.2360    0.0000 C   0  0  0  0  0  0  0  0  0  0  0  0
    1.5742    1.0140    0.0000 C   0  0  0  0  0  0  0  0  0  0  0  0
   -1.6150    2.1542    0.0000 C   0  0  0  0  0  0  0  0  0  0  0  0
   -2.0330   -0.4860    0.0000 C   0  0  0  0  0  0  0  0  0  0  0  0
    2.8732   -1.2360    0.0000 C   0  0  0  0  0  0  0  0  0  0  0  0
   -3.0821    2.4660    0.0000 C   0  0  0  0  0  0  0  0  0  0  0  0
   -0.6112    3.2689    0.0000 C   0  0  0  0  0  0  0  0  0  0  0  0
   -3.5458    3.8926    0.0000 C   0  0  0  0  0  0  0  0  0  0  0  0
   -1.0748    4.6955    0.0000 C   0  0  0  0  0  0  0  0  0  0  0  0
   -2.5419    5.0073    0.0000 C   0  0  0  0  0  0  0  0  0  0  0  0
  1  7  1  0  0  0  0
  1 10  1  0  0  0  0
  2  7  1  0  0  0  0
  2 11  2  0  0  0  0
  3  8  2  0  0  0  0
  3 11  1  0  0  0  0
  4  8  1  0  0  0  0
  5  6  1  0  0  0  0
  5  7  2  0  0  0  0
  5  8  1  0  0  0  0
  6  9  1  0  0  0  0
  6 10  2  0  0  0  0
  9 12  2  0  0  0  0
  9 13  1  0  0  0  0
 12 14  1  0  0  0  0
 13 15  2  0  0  0  0
 14 16  2  0  0  0  0
 15 16  1  0  0  0  0
M  END
> <Value>
4.100000018985305

> <Relation>
=

> <SourceURI>
mol:CHEMBL1975212

$$$$

Generated by Molecular Materials Informatics

 52 54  0  0  0  0  0  0  0  0999 V2000
   -0.2923   -3.1687    0.0000 O   0  0  0  0  0  0  0  0  0  0  0  0
   -2.8903    1.3312    0.0000 O   0  0  0  0  0  0  0  0  0  0  0  0
    2.3057   -3.1687    0.0000 N   0  0  0  0  0  0  0  0  0  0  0  0
   -1.5914    3.5812    0.0000 N   0  0  0  0  0  0  0  0  0  0  0  0
   -0.2923   -9.1687    0.0000 N   0  0  0  0  0  0  0  0  0  0  0  0
    6.2030   -6.9187    0.0000 N   0  0  0  0  0  0  0  0  0  0  0  0
   -5.4885    8.8312    0.0000 N   0  0  0  0  0  0  0  0  0  0  0  0
   -6.7876    2.0812    0.0000 N   0  0  0  0  0  0  0  0  0  0  0  0
   -1.5914   -9.9187    0.0000 N   0  0  0  0  0  0  0  0  0  0  0  0
    7.5019   -7.6687    0.0000 N   0  0  0  0  0  0  0  0  0  0  0  0
   -5.4885   10.3313    0.0000 N   0  0  0  0  0  0  0  0  0  0  0  0
   -8.0865    1.3312    0.0000 N   0  0  0  0  0  0  0  0  0  0  0  0
   -2.8903  -12.1687    0.0000 N   0  0  0  0  0  0  0  0  0  0  0  0
    8.8010   -5.4187    0.0000 N   0  0  0  0  0  0  0  0  0  0  0  0
   -0.2923  -12.1687    0.0000 N   0  0  0  0  0  0  0  0  0  0  0  0
   10.1001   -7.6687    0.0000 N   0  0  0  0  0  0  0  0  0  0  0  0
   -4.1894   12.5812    0.0000 N   0  0  0  0  0  0  0  0  0  0  0  0
   -6.7876   -0.9187    0.0000 N   0  0  0  0  0  0  0  0  0  0  0  0
   -2.8903   10.3313    0.0000 N   0  0  0  0  0  0  0  0  0  0  0  0
   -9.3856   -0.9187    0.0000 N   0  0  0  0  0  0  0  0  0  0  0  0
    2.3057   -4.6687    0.0000 C   0  0  0  0  0  0  0  0  0  0  0  0
   -2.8903    4.3313    0.0000 C   0  0  0  0  0  0  0  0  0  0  0  0
    1.0068   -6.9187    0.0000 C   0  0  0  0  0  0  0  0  0  0  0  0
    3.6048   -6.9187    0.0000 C   0  0  0  0  0  0  0  0  0  0  0  0
   -4.1894    6.5813    0.0000 C   0  0  0  0  0  0  0  0  0  0  0  0
   -5.4885    4.3313    0.0000 C   0  0  0  0  0  0  0  0  0  0  0  0
    1.0068   -0.9187    0.0000 C   0  0  0  0  0  0  0  0  0  0  0  0
   -0.2923    1.3312    0.0000 C   0  0  0  0  0  0  0  0  0  0  0  0
    1.0068   -2.4187    0.0000 C   0  0  0  0  0  0  0  0  0  0  0  0
   -1.5914    2.0812    0.0000 C   0  0  0  0  0  0  0  0  0  0  0  0
    3.6048   -5.4187    0.0000 C   0  0  0  0  0  0  0  0  0  0  0  0
    1.0068   -5.4187    0.0000 C   0  0  0  0  0  0  0  0  0  0  0  0
   -4.1894    3.5812    0.0000 C   0  0  0  0  0  0  0  0  0  0  0  0
   -2.8903    5.8313    0.0000 C   0  0  0  0  0  0  0  0  0  0  0  0
    2.3057   -7.6687    0.0000 C   0  0  0  0  0  0  0  0  0  0  0  0
   -5.4885    5.8313    0.0000 C   0  0  0  0  0  0  0  0  0  0  0  0
   -0.2923   -0.1687    0.0000 C   0  0  0  0  0  0  0  0  0  0  0  0
   -0.2923   -7.6687    0.0000 C   0  0  0  0  0  0  0  0  0  0  0  0
    4.9039   -7.6687    0.0000 C   0  0  0  0  0  0  0  0  0  0  0  0
   -4.1894    8.0813    0.0000 C   0  0  0  0  0  0  0  0  0  0  0  0
   -6.7876    3.5812    0.0000 C   0  0  0  0  0  0  0  0  0  0  0  0
    2.3057   -0.1687    0.0000 C   0  0  0  0  0  0  0  0  0  0  0  0
    1.0068    2.0812    0.0000 C   0  0  0  0  0  0  0  0  0  0  0  0
    2.3057    1.3312    0.0000 C   0  0  0  0  0  0  0  0  0  0  0  0
   -1.5914   -6.9187    0.0000 C   0  0  0  0  0  0  0  0  0  0  0  0
    4.9039   -9.1687    0.0000 C   0  0  0  0  0  0  0  0  0  0  0  0
   -2.8903    8.8312    0.0000 C   0  0  0  0  0  0  0  0  0  0  0  0
   -8.0865    4.3313    0.0000 C   0  0  0  0  0  0  0  0  0  0  0  0
   -1.5914  -11.4187    0.0000 C   0  0  0  0  0  0  0  0  0  0  0  0
    8.8010   -6.9187    0.0000 C   0  0  0  0  0  0  0  0  0  0  0  0
   -4.1894   11.0812    0.0000 C   0  0  0  0  0  0  0  0  0  0  0  0
   -8.0865   -0.1687    0.0000 C   0  0  0  0  0  0  0  0  0  0  0  0
  1 29  2  0  0  0  0
  2 30  2  0  0  0  0
  3 21  1  0  0  0  0
  3 29  1  0  0  0  0
  4 22  1  0  0  0  0
  4 30  1  0  0  0  0
  5  9  1  0  0  0  0
  5 38  2  0  0  0  0
  6 10  1  0  0  0  0
  6 39  2  0  0  0  0
  7 11  1  0  0  0  0
  7 40  2  0  0  0  0
  8 12  1  0  0  0  0
  8 41  2  0  0  0  0
  9 49  1  0  0  0  0
 10 50  1  0  0  0  0
 11 51  1  0  0  0  0
 12 52  1  0  0  0  0
 13 49  2  0  0  0  0
 14 50  2  0  0  0  0
 15 49  1  0  0  0  0
 16 50  1  0  0  0  0
 17 51  2  0  0  0  0
 18 52  2  0  0  0  0
 19 51  1  0  0  0  0
 20 52  1  0  0  0  0
 21 31  2  0  0  0  0
 21 32  1  0  0  0  0
 22 33  2  0  0  0  0
 22 34  1  0  0  0  0
 23 32  2  0  0  0  0
 23 35  1  0  0  0  0
 23 38  1  0  0  0  0
 24 31  1  0  0  0  0
 24 35  2  0  0  0  0
 24 39  1  0  0  0  0
 25 34  2  0  0  0  0
 25 36  1  0  0  0  0
 25 40  1  0  0  0  0
 26 33  1  0  0  0  0
 26 36  2  0  0  0  0
 26 41  1  0  0  0  0
 27 29  1  0  0  0  0
 27 37  1  0  0  0  0
 27 42  2  0  0  0  0
 28 30  1  0  0  0  0
 28 37  2  0  0  0  0
 28 43  1  0  0  0  0
 38 45  1  0  0  0  0
 39 46  1  0  0  0  0
 40 47  1  0  0  0  0
 41 48  1  0  0  0  0
 42 44  1  0  0  0  0
 43 44  2  0  0  0  0
M  END
> <Value>
7.400007822415902

> <Relation>
=

> <SourceURI>
mol:CHEMBL2000685

$$$$

Generated by Molecular Materials Informatics

 27 30  0  0  0  0  0  0  0  0999 V2000
   -3.9618   -2.0226    0.0000 C   0  0  0  0  0  0  0  0  0  0  0  0
   -6.2108   -2.9767    0.0000 C   0  0  0  0  0  0  0  0  0  0  0  0
   -6.3471   -1.4774    0.0000 N   0  0  0  0  0  0  0  0  0  0  0  0
    2.0430    3.1568    0.0000 C   0  0  0  0  0  0  0  0  0  0  0  0
   -4.7493   -3.3175    0.0000 C   0  0  0  0  0  0  0  0  0  0  0  0
   -2.4625   -2.0226    0.0000 C   0  0  0  0  0  0  0  0  0  0  0  0
   -4.9764   -0.8868    0.0000 C   0  0  0  0  0  0  0  0  0  0  0  0
    2.8078    1.8392    0.0000 N   0  0  0  0  0  0  0  0  0  0  0  0
    0.5588    3.1568    0.0000 N   0  0  0  0  0  0  0  0  0  0  0  0
   -1.7129   -0.7505    0.0000 C   0  0  0  0  0  0  0  0  0  0  0  0
    2.8078    4.4516    0.0000 O   0  0  0  0  0  0  0  0  0  0  0  0
   -7.3390   -3.9535    0.0000 O   0  0  0  0  0  0  0  0  0  0  0  0
    4.2920    1.8392    0.0000 C   0  0  0  0  0  0  0  0  0  0  0  0
   -2.4625    0.5671    0.0000 C   0  0  0  0  0  0  0  0  0  0  0  0
   -0.2136   -0.7505    0.0000 C   0  0  0  0  0  0  0  0  0  0  0  0
   -0.2059    1.8392    0.0000 C   0  0  0  0  0  0  0  0  0  0  0  0
    5.0416    3.1568    0.0000 C   0  0  0  0  0  0  0  0  0  0  0  0
    0.5210    0.5217    0.0000 C   0  0  0  0  0  0  0  0  0  0  0  0
   -1.7052    1.8392    0.0000 C   0  0  0  0  0  0  0  0  0  0  0  0
    6.5409    3.1568    0.0000 C   0  0  0  0  0  0  0  0  0  0  0  0
   -4.0223   -4.6123    0.0000 C   0  0  0  0  0  0  0  0  0  0  0  0
   -1.7356   -3.3402    0.0000 C   0  0  0  0  0  0  0  0  0  0  0  0
   -2.5079   -4.6350    0.0000 C   0  0  0  0  0  0  0  0  0  0  0  0
    6.5560    0.5444    0.0000 C   0  0  0  0  0  0  0  0  0  0  0  0
    5.0567    0.5444    0.0000 C   0  0  0  0  0  0  0  0  0  0  0  0
    7.3057    1.8392    0.0000 C   0  0  0  0  0  0  0  0  0  0  0  0
    7.2829    4.4516    0.0000 C   0  0  0  0  0  0  0  0  0  0  0  0
  2  5  1  0  0  0  0
  3  7  1  0  0  0  0
  4  9  1  0  0  0  0
  5  1  2  0  0  0  0
  6  1  1  0  0  0  0
  7  1  1  0  0  0  0
  8  4  1  0  0  0  0
  9 16  1  0  0  0  0
 10  6  1  0  0  0  0
 11  4  2  0  0  0  0
 12  2  2  0  0  0  0
 13  8  1  0  0  0  0
 14 10  1  0  0  0  0
 15 10  2  0  0  0  0
 16 18  2  0  0  0  0
 17 13  1  0  0  0  0
 18 15  1  0  0  0  0
 19 14  2  0  0  0  0
 20 17  2  0  0  0  0
 21  5  1  0  0  0  0
 22  6  2  0  0  0  0
 23 22  1  0  0  0  0
 24 25  1  0  0  0  0
 25 13  2  0  0  0  0
 26 24  2  0  0  0  0
 27 20  1  0  0  0  0
  2  3  1  0  0  0  0
 21 23  2  0  0  0  0
 19 16  1  0  0  0  0
 20 26  1  0  0  0  0
M  END
> <Value>
5.899998417198648

> <Relation>
<

> <SourceURI>
mol:CHEMBL185569

$$$$

Generated by Molecular Materials Informatics

 21 24  0  0  0  0  0  0  0  0999 V2000
    9.0894   -3.0328    0.0000 O   0  0  0  0  0  0  0  0  0  0  0  0
    4.9525    0.4510    0.0000 N   0  0  0  0  0  0  0  0  0  0  0  0
    2.7354   -0.5361    0.0000 N   0  0  0  0  0  0  0  0  0  0  0  0
    4.2025   -0.8481    0.0000 N   0  0  0  0  0  0  0  0  0  0  0  0
   -2.7452    3.6692    0.0000 N   0  0  0  0  0  0  0  0  0  0  0  0
   -3.6268    2.4555    0.0000 N   0  0  0  0  0  0  0  0  0  0  0  0
    1.2796    1.7055    0.0000 C   0  0  0  0  0  0  0  0  0  0  0  0
    2.5785    0.9555    0.0000 C   0  0  0  0  0  0  0  0  0  0  0  0
   -1.3186    1.7055    0.0000 C   0  0  0  0  0  0  0  0  0  0  0  0
   -1.3186    3.2055    0.0000 C   0  0  0  0  0  0  0  0  0  0  0  0
   -0.0195    0.9555    0.0000 C   0  0  0  0  0  0  0  0  0  0  0  0
    3.9488    1.5657    0.0000 C   0  0  0  0  0  0  0  0  0  0  0  0
    1.2796    3.2055    0.0000 C   0  0  0  0  0  0  0  0  0  0  0  0
   -0.0195    3.9555    0.0000 C   0  0  0  0  0  0  0  0  0  0  0  0
   -2.7452    1.2421    0.0000 C   0  0  0  0  0  0  0  0  0  0  0  0
    6.4443    0.6077    0.0000 C   0  0  0  0  0  0  0  0  0  0  0  0
    7.3259   -0.6057    0.0000 C   0  0  0  0  0  0  0  0  0  0  0  0
    6.7159   -1.9761    0.0000 C   0  0  0  0  0  0  0  0  0  0  0  0
    8.8178   -0.4490    0.0000 C   0  0  0  0  0  0  0  0  0  0  0  0
    7.5976   -3.1895    0.0000 C   0  0  0  0  0  0  0  0  0  0  0  0
    9.6994   -1.6625    0.0000 C   0  0  0  0  0  0  0  0  0  0  0  0
  1 20  1  0  0  0  0
  1 21  1  0  0  0  0
  2  4  1  0  0  0  0
  2 12  1  0  0  0  0
  2 16  1  0  0  0  0
  3  4  2  0  0  0  0
  3  8  1  0  0  0  0
  5  6  1  0  0  0  0
  5 10  1  0  0  0  0
  6 15  2  0  0  0  0
  7  8  1  0  0  0  0
  7 11  1  0  0  0  0
  7 13  2  0  0  0  0
  8 12  2  0  0  0  0
  9 10  1  0  0  0  0
  9 11  2  0  0  0  0
  9 15  1  0  0  0  0
 10 14  2  0  0  0  0
 13 14  1  0  0  0  0
 16 17  1  0  0  0  0
 17 18  1  0  0  0  0
 17 19  1  0  0  0  0
 18 20  1  0  0  0  0
 19 21  1  0  0  0  0
M  END
> <Value>
6.199998172182031

> <Relation>
=

> <SourceURI>
mol:CHEMBL1969843

$$$$

Generated by Molecular Materials Informatics

 27 30  0  0  0  0  0  0  0  0999 V2000
   -4.0068   -2.1796    0.0000 O   0  0  0  0  0  0  0  0  0  0  0  0
    7.1447    0.0224    0.0000 O   0  0  0  0  0  0  0  0  0  0  0  0
    7.1447   -2.9776    0.0000 O   0  0  0  0  0  0  0  0  0  0  0  0
   -2.9577    0.7724    0.0000 N   0  0  0  0  0  0  0  0  0  0  0  0
   -2.0760    1.9859    0.0000 N   0  0  0  0  0  0  0  0  0  0  0  0
   -1.5359   -2.9825    0.0000 N   0  0  0  0  0  0  0  0  0  0  0  0
   -0.6495    0.0224    0.0000 C   0  0  0  0  0  0  0  0  0  0  0  0
   -2.0760   -0.4412    0.0000 C   0  0  0  0  0  0  0  0  0  0  0  0
   -0.6495    1.5224    0.0000 C   0  0  0  0  0  0  0  0  0  0  0  0
    1.9487    0.0224    0.0000 C   0  0  0  0  0  0  0  0  0  0  0  0
    0.6496   -0.7276    0.0000 C   0  0  0  0  0  0  0  0  0  0  0  0
    3.2476   -0.7276    0.0000 C   0  0  0  0  0  0  0  0  0  0  0  0
   -2.5395   -1.8678    0.0000 C   0  0  0  0  0  0  0  0  0  0  0  0
    0.6496    2.2724    0.0000 C   0  0  0  0  0  0  0  0  0  0  0  0
    1.9487    1.5224    0.0000 C   0  0  0  0  0  0  0  0  0  0  0  0
    4.5467    0.0224    0.0000 C   0  0  0  0  0  0  0  0  0  0  0  0
    5.8458   -0.7276    0.0000 C   0  0  0  0  0  0  0  0  0  0  0  0
    3.2476   -2.2276    0.0000 C   0  0  0  0  0  0  0  0  0  0  0  0
    5.8458   -2.2276    0.0000 C   0  0  0  0  0  0  0  0  0  0  0  0
    4.5467   -2.9776    0.0000 C   0  0  0  0  0  0  0  0  0  0  0  0
   -1.9995   -4.4090    0.0000 C   0  0  0  0  0  0  0  0  0  0  0  0
   -0.9957   -5.5238    0.0000 C   0  0  0  0  0  0  0  0  0  0  0  0
   -3.4666   -4.7209    0.0000 C   0  0  0  0  0  0  0  0  0  0  0  0
   -1.4593   -6.9503    0.0000 C   0  0  0  0  0  0  0  0  0  0  0  0
   -3.9302   -6.1476    0.0000 C   0  0  0  0  0  0  0  0  0  0  0  0
    8.4438   -0.7276    0.0000 C   0  0  0  0  0  0  0  0  0  0  0  0
   -2.9264   -7.2623    0.0000 C   0  0  0  0  0  0  0  0  0  0  0  0
  1 13  2  0  0  0  0
  2 17  1  0  0  0  0
  2 26  1  0  0  0  0
  3 19  1  0  0  0  0
  4  5  1  0  0  0  0
  4  8  2  0  0  0  0
  5  9  1  0  0  0  0
  6 13  1  0  0  0  0
  6 21  1  0  0  0  0
  7  8  1  0  0  0  0
  7  9  1  0  0  0  0
  7 11  2  0  0  0  0
  8 13  1  0  0  0  0
  9 14  2  0  0  0  0
 10 11  1  0  0  0  0
 10 12  1  0  0  0  0
 10 15  2  0  0  0  0
 12 16  1  0  0  0  0
 12 18  2  0  0  0  0
 14 15  1  0  0  0  0
 16 17  2  0  0  0  0
 17 19  1  0  0  0  0
 18 20  1  0  0  0  0
 19 20  2  0  0  0  0
 21 22  2  0  0  0  0
 21 23  1  0  0  0  0
 22 24  1  0  0  0  0
 23 25  2  0  0  0  0
 24 27  2  0  0  0  0
 25 27  1  0  0  0  0
M  END
> <Value>
5.899998417198648

> <Relation>
<

> <SourceURI>
mol:CHEMBL2007002

$$$$

Generated by Molecular Materials Informatics

 30 34  0  0  0  0  0  0  0  0999 V2000
    8.5973   -1.8002    0.0000 F   0  0  0  0  0  0  0  0  0  0  0  0
   -1.1376   -3.0139    0.0000 O   0  0  0  0  0  0  0  0  0  0  0  0
    0.2891   -1.0502    0.0000 N   0  0  0  0  0  0  0  0  0  0  0  0
    1.7156   -3.0139    0.0000 N   0  0  0  0  0  0  0  0  0  0  0  0
    3.6464    1.1516    0.0000 N   0  0  0  0  0  0  0  0  0  0  0  0
    3.1062    3.6930    0.0000 N   0  0  0  0  0  0  0  0  0  0  0  0
    5.5771    2.8901    0.0000 N   0  0  0  0  0  0  0  0  0  0  0  0
    1.7156   -0.5868    0.0000 C   0  0  0  0  0  0  0  0  0  0  0  0
    2.5973   -1.8002    0.0000 C   0  0  0  0  0  0  0  0  0  0  0  0
    0.2891   -2.5502    0.0000 C   0  0  0  0  0  0  0  0  0  0  0  0
    2.1791    0.8398    0.0000 C   0  0  0  0  0  0  0  0  0  0  0  0
    4.0973   -1.8002    0.0000 C   0  0  0  0  0  0  0  0  0  0  0  0
   -1.1376   -0.5868    0.0000 C   0  0  0  0  0  0  0  0  0  0  0  0
   -2.0193   -1.8002    0.0000 C   0  0  0  0  0  0  0  0  0  0  0  0
    1.1755    1.9545    0.0000 C   0  0  0  0  0  0  0  0  0  0  0  0
    4.1098    2.5783    0.0000 C   0  0  0  0  0  0  0  0  0  0  0  0
    4.8473   -0.5013    0.0000 C   0  0  0  0  0  0  0  0  0  0  0  0
    4.8473   -3.0993    0.0000 C   0  0  0  0  0  0  0  0  0  0  0  0
    1.6389    3.3810    0.0000 C   0  0  0  0  0  0  0  0  0  0  0  0
    6.3473   -0.5013    0.0000 C   0  0  0  0  0  0  0  0  0  0  0  0
    6.3473   -3.0993    0.0000 C   0  0  0  0  0  0  0  0  0  0  0  0
    7.0973   -1.8002    0.0000 C   0  0  0  0  0  0  0  0  0  0  0  0
    6.0406    4.3167    0.0000 C   0  0  0  0  0  0  0  0  0  0  0  0
    7.5078    4.6285    0.0000 C   0  0  0  0  0  0  0  0  0  0  0  0
    7.9715    6.0552    0.0000 C   0  0  0  0  0  0  0  0  0  0  0  0
    8.5116    3.5139    0.0000 C   0  0  0  0  0  0  0  0  0  0  0  0
    5.0369    5.4314    0.0000 C   0  0  0  0  0  0  0  0  0  0  0  0
    9.4386    6.3670    0.0000 C   0  0  0  0  0  0  0  0  0  0  0  0
    9.9787    3.8258    0.0000 C   0  0  0  0  0  0  0  0  0  0  0  0
   10.4424    5.2523    0.0000 C   0  0  0  0  0  0  0  0  0  0  0  0
  1 22  1  0  0  0  0
  2 10  1  0  0  0  0
  2 14  1  0  0  0  0
  3  8  1  0  0  0  0
  3 10  1  0  0  0  0
  3 13  1  0  0  0  0
  4  9  1  0  0  0  0
  4 10  2  0  0  0  0
  5 11  2  0  0  0  0
  5 16  1  0  0  0  0
  6 16  2  0  0  0  0
  6 19  1  0  0  0  0
  7 16  1  0  0  0  0
  7 23  1  0  0  0  0
  8  9  2  0  0  0  0
  8 11  1  0  0  0  0
  9 12  1  0  0  0  0
 11 15  1  0  0  0  0
 12 17  2  0  0  0  0
 12 18  1  0  0  0  0
 13 14  2  0  0  0  0
 15 19  2  0  0  0  0
 17 20  1  0  0  0  0
 18 21  2  0  0  0  0
 20 22  2  0  0  0  0
 21 22  1  0  0  0  0
 23 24  1  0  0  0  0
 23 27  1  0  0  0  0
 24 25  2  0  0  0  0
 24 26  1  0  0  0  0
 25 28  1  0  0  0  0
 26 29  2  0  0  0  0
 28 30  2  0  0  0  0
 29 30  1  0  0  0  0
M  END
> <Value>
5.899998417198648

> <Relation>
<

> <SourceURI>
mol:CHEMBL1990288

$$$$

Generated by Molecular Materials Informatics

 26 29  0  0  0  0  0  0  0  0999 V2000
    7.8320    5.6876    0.0000 Br  0  0  0  0  0  0  0  0  0  0  0  0
    6.7517    0.6048    0.0000 S   0  0  0  0  0  0  0  0  0  0  0  0
    5.6369    1.6086    0.0000 O   0  0  0  0  0  0  0  0  0  0  0  0
    7.8664   -0.3989    0.0000 O   0  0  0  0  0  0  0  0  0  0  0  0
   -0.7029   -4.1326    0.0000 O   0  0  0  0  0  0  0  0  0  0  0  0
    5.7480   -0.5100    0.0000 N   0  0  0  0  0  0  0  0  0  0  0  0
    0.5961   -3.3826    0.0000 N   0  0  0  0  0  0  0  0  0  0  0  0
    1.8097   -1.0009    0.0000 C   0  0  0  0  0  0  0  0  0  0  0  0
    1.3461    0.4257    0.0000 C   0  0  0  0  0  0  0  0  0  0  0  0
   -0.1539    0.4257    0.0000 C   0  0  0  0  0  0  0  0  0  0  0  0
    0.5961   -1.8826    0.0000 C   0  0  0  0  0  0  0  0  0  0  0  0
   -0.6174   -1.0009    0.0000 C   0  0  0  0  0  0  0  0  0  0  0  0
    3.2770   -1.3127    0.0000 C   0  0  0  0  0  0  0  0  0  0  0  0
    4.2807   -0.1980    0.0000 C   0  0  0  0  0  0  0  0  0  0  0  0
    2.3499    1.5404    0.0000 C   0  0  0  0  0  0  0  0  0  0  0  0
   -1.1576    1.5404    0.0000 C   0  0  0  0  0  0  0  0  0  0  0  0
    3.8170    1.2286    0.0000 C   0  0  0  0  0  0  0  0  0  0  0  0
   -2.0847   -1.3127    0.0000 C   0  0  0  0  0  0  0  0  0  0  0  0
    7.7553    1.7195    0.0000 C   0  0  0  0  0  0  0  0  0  0  0  0
   -2.6249    1.2286    0.0000 C   0  0  0  0  0  0  0  0  0  0  0  0
   -3.0884   -0.1980    0.0000 C   0  0  0  0  0  0  0  0  0  0  0  0
    7.2918    3.1463    0.0000 C   0  0  0  0  0  0  0  0  0  0  0  0
    9.2226    1.4077    0.0000 C   0  0  0  0  0  0  0  0  0  0  0  0
    8.2955    4.2610    0.0000 C   0  0  0  0  0  0  0  0  0  0  0  0
   10.2263    2.5224    0.0000 C   0  0  0  0  0  0  0  0  0  0  0  0
    9.7628    3.9490    0.0000 C   0  0  0  0  0  0  0  0  0  0  0  0
  1 24  1  0  0  0  0
  2  3  2  0  0  0  0
  2  4  2  0  0  0  0
  2  6  1  0  0  0  0
  2 19  1  0  0  0  0
  7  5  1  0  0  0  0
  6 14  1  0  0  0  0
  7 11  2  0  0  0  0
  8  9  1  0  0  0  0
  8 11  1  0  0  0  0
  8 13  2  0  0  0  0
  9 10  1  0  0  0  0
  9 15  2  0  0  0  0
 10 12  1  0  0  0  0
 10 16  2  0  0  0  0
 11 12  1  0  0  0  0
 12 18  2  0  0  0  0
 13 14  1  0  0  0  0
 14 17  2  0  0  0  0
 15 17  1  0  0  0  0
 16 20  1  0  0  0  0
 18 21  1  0  0  0  0
 19 22  1  0  0  0  0
 19 23  2  0  0  0  0
 20 21  2  0  0  0  0
 22 24  2  0  0  0  0
 23 25  1  0  0  0  0
 24 26  1  0  0  0  0
 25 26  2  0  0  0  0
M  END
> <Value>
5.300000202445418

> <Relation>
<

> <SourceURI>
mol:CHEMBL1973793

$$$$

Generated by Molecular Materials Informatics

 31 34  0  0  0  0  0  0  0  0999 V2000
    1.0754   -3.2766    0.0000 O   0  0  0  0  0  0  0  0  0  0  0  0
    7.6562    6.6050    0.0000 O   0  0  0  0  0  0  0  0  0  0  0  0
    7.6562    3.6050    0.0000 O   0  0  0  0  0  0  0  0  0  0  0  0
    5.0582    8.1050    0.0000 O   0  0  0  0  0  0  0  0  0  0  0  0
    2.4600    3.6050    0.0000 N   0  0  0  0  0  0  0  0  0  0  0  0
    1.1609    1.3550    0.0000 N   0  0  0  0  0  0  0  0  0  0  0  0
   -0.1380   -0.8950    0.0000 N   0  0  0  0  0  0  0  0  0  0  0  0
    0.6120   -4.7032    0.0000 N   0  0  0  0  0  0  0  0  0  0  0  0
    3.7591    1.3550    0.0000 N   0  0  0  0  0  0  0  0  0  0  0  0
    6.3571    5.8550    0.0000 C   0  0  0  0  0  0  0  0  0  0  0  0
    3.7591    4.3550    0.0000 C   0  0  0  0  0  0  0  0  0  0  0  0
    6.3571    4.3550    0.0000 C   0  0  0  0  0  0  0  0  0  0  0  0
    5.0582    6.6050    0.0000 C   0  0  0  0  0  0  0  0  0  0  0  0
    5.0582    3.6050    0.0000 C   0  0  0  0  0  0  0  0  0  0  0  0
    3.7591    5.8550    0.0000 C   0  0  0  0  0  0  0  0  0  0  0  0
    2.4600    2.1050    0.0000 C   0  0  0  0  0  0  0  0  0  0  0  0
   -0.1380   -2.3950    0.0000 C   0  0  0  0  0  0  0  0  0  0  0  0
   -0.8880   -4.7032    0.0000 C   0  0  0  0  0  0  0  0  0  0  0  0
    1.1609   -0.1450    0.0000 C   0  0  0  0  0  0  0  0  0  0  0  0
   -1.3516   -3.2766    0.0000 C   0  0  0  0  0  0  0  0  0  0  0  0
   -1.7698   -5.9168    0.0000 C   0  0  0  0  0  0  0  0  0  0  0  0
    2.4600   -0.8950    0.0000 C   0  0  0  0  0  0  0  0  0  0  0  0
    3.7591   -0.1450    0.0000 C   0  0  0  0  0  0  0  0  0  0  0  0
   -1.1596   -7.2872    0.0000 C   0  0  0  0  0  0  0  0  0  0  0  0
   -3.2615   -5.7599    0.0000 C   0  0  0  0  0  0  0  0  0  0  0  0
   -2.0413   -8.5006    0.0000 C   0  0  0  0  0  0  0  0  0  0  0  0
   -4.1433   -6.9735    0.0000 C   0  0  0  0  0  0  0  0  0  0  0  0
    7.6562    8.1050    0.0000 C   0  0  0  0  0  0  0  0  0  0  0  0
    7.6562    2.1050    0.0000 C   0  0  0  0  0  0  0  0  0  0  0  0
    3.7591    8.8550    0.0000 C   0  0  0  0  0  0  0  0  0  0  0  0
   -3.5331   -8.3439    0.0000 C   0  0  0  0  0  0  0  0  0  0  0  0
  1  8  1  0  0  0  0
  1 17  1  0  0  0  0
  2 10  1  0  0  0  0
  2 28  1  0  0  0  0
  3 12  1  0  0  0  0
  3 29  1  0  0  0  0
  4 13  1  0  0  0  0
  4 30  1  0  0  0  0
  5 11  1  0  0  0  0
  5 16  1  0  0  0  0
  6 16  1  0  0  0  0
  6 19  2  0  0  0  0
  7 17  1  0  0  0  0
  7 19  1  0  0  0  0
  8 18  2  0  0  0  0
  9 16  2  0  0  0  0
  9 23  1  0  0  0  0
 10 12  2  0  0  0  0
 10 13  1  0  0  0  0
 11 14  2  0  0  0  0
 11 15  1  0  0  0  0
 12 14  1  0  0  0  0
 13 15  2  0  0  0  0
 17 20  2  0  0  0  0
 18 20  1  0  0  0  0
 18 21  1  0  0  0  0
 19 22  1  0  0  0  0
 21 24  1  0  0  0  0
 21 25  1  0  0  0  0
 22 23  2  0  0  0  0
 24 26  1  0  0  0  0
 25 27  1  0  0  0  0
 26 31  1  0  0  0  0
 27 31  1  0  0  0  0
M  END
> <Value>
5.899998417198648

> <Relation>
<

> <SourceURI>
mol:CHEMBL1984711

$$$$

Generated by Molecular Materials Informatics

 33 37  0  0  0  0  0  0  0  0999 V2000
    2.0917   -1.1080    0.0000 F   0  0  0  0  0  0  0  0  0  0  0  0
    0.1484    4.4353    0.0000 O   0  0  0  0  0  0  0  0  0  0  0  0
   -0.7905   -0.2753    0.0000 N   0  0  0  0  0  0  0  0  0  0  0  0
   -1.5116   -2.7713    0.0000 N   0  0  0  0  0  0  0  0  0  0  0  0
   -2.2329   -5.2673    0.0000 N   0  0  0  0  0  0  0  0  0  0  0  0
   -0.7929  -11.0921    0.0000 N   0  0  0  0  0  0  0  0  0  0  0  0
    0.2893   -4.6439    0.0000 N   0  0  0  0  0  0  0  0  0  0  0  0
   -1.5873    2.5020    0.0000 N   0  0  0  0  0  0  0  0  0  0  0  0
   -0.0731  -14.0043    0.0000 N   0  0  0  0  0  0  0  0  0  0  0  0
    0.2906    0.7645    0.0000 C   0  0  0  0  0  0  0  0  0  0  0  0
    0.9547    1.9654    0.0000 C   0  0  0  0  0  0  0  0  0  0  0  0
    1.7006    1.4742    0.0000 C   0  0  0  0  0  0  0  0  0  0  0  0
    2.1189    2.7840    0.0000 C   0  0  0  0  0  0  0  0  0  0  0  0
    1.8280    4.2665    0.0000 C   0  0  0  0  0  0  0  0  0  0  0  0
    3.0288    0.8009    0.0000 C   0  0  0  0  0  0  0  0  0  0  0  0
    3.5653    1.9380    0.0000 C   0  0  0  0  0  0  0  0  0  0  0  0
   -0.4305   -1.7315    0.0000 C   0  0  0  0  0  0  0  0  0  0  0  0
   -0.1614    2.9674    0.0000 C   0  0  0  0  0  0  0  0  0  0  0  0
    1.0106   -2.1479    0.0000 C   0  0  0  0  0  0  0  0  0  0  0  0
   -1.1516   -4.2275    0.0000 C   0  0  0  0  0  0  0  0  0  0  0  0
   -1.1529   -9.6359    0.0000 C   0  0  0  0  0  0  0  0  0  0  0  0
   -1.8729   -6.7235    0.0000 C   0  0  0  0  0  0  0  0  0  0  0  0
   -2.5940   -9.2195    0.0000 C   0  0  0  0  0  0  0  0  0  0  0  0
    1.3704   -3.6040    0.0000 C   0  0  0  0  0  0  0  0  0  0  0  0
   -2.9540   -7.7633    0.0000 C   0  0  0  0  0  0  0  0  0  0  0  0
   -0.0718   -8.5961    0.0000 C   0  0  0  0  0  0  0  0  0  0  0  0
   -0.4318   -7.1399    0.0000 C   0  0  0  0  0  0  0  0  0  0  0  0
    0.6480  -11.5084    0.0000 C   0  0  0  0  0  0  0  0  0  0  0  0
   -1.8740  -12.1319    0.0000 C   0  0  0  0  0  0  0  0  0  0  0  0
   -3.6751  -10.2593    0.0000 C   0  0  0  0  0  0  0  0  0  0  0  0
    1.0080  -12.9645    0.0000 C   0  0  0  0  0  0  0  0  0  0  0  0
   -1.5142  -13.5881    0.0000 C   0  0  0  0  0  0  0  0  0  0  0  0
    0.2869  -15.4605    0.0000 C   0  0  0  0  0  0  0  0  0  0  0  0
  1 19  1  0  0  0  0
  2 18  2  0  0  0  0
  3 10  1  0  0  0  0
  3 17  1  0  0  0  0
  4 17  2  0  0  0  0
  4 20  1  0  0  0  0
  5 20  1  0  0  0  0
  5 22  1  0  0  0  0
  6 21  1  0  0  0  0
  6 28  1  0  0  0  0
  6 29  1  0  0  0  0
  7 20  2  0  0  0  0
  7 24  1  0  0  0  0
  8 18  1  0  0  0  0
  9 31  1  0  0  0  0
  9 32  1  0  0  0  0
  9 33  1  0  0  0  0
 10 11  1  0  0  0  0
 10 12  1  0  0  0  0
 11 13  1  0  0  0  0
 11 18  1  0  0  0  0
 12 14  1  0  0  0  0
 12 15  1  0  0  0  0
 13 14  1  0  0  0  0
 13 16  1  0  0  0  0
 15 16  2  0  0  0  0
 17 19  1  0  0  0  0
 19 24  2  0  0  0  0
 21 23  1  0  0  0  0
 21 26  2  0  0  0  0
 22 25  1  0  0  0  0
 22 27  2  0  0  0  0
 23 25  2  0  0  0  0
 23 30  1  0  0  0  0
 26 27  1  0  0  0  0
 28 31  1  0  0  0  0
 29 32  1  0  0  0  0
M  END
> <Value>
6.900008766455316

> <Relation>
=

> <SourceURI>
mol:CHEMBL1967878

$$$$

Generated by Molecular Materials Informatics

 26 30  0  0  0  0  0  0  0  0999 V2000
   -1.6831   -3.9731    0.0000 S   0  0  0  0  0  0  0  0  0  0  0  0
   -1.2194   -2.5464    0.0000 O   0  0  0  0  0  0  0  0  0  0  0  0
   -2.1465   -5.3996    0.0000 O   0  0  0  0  0  0  0  0  0  0  0  0
    1.3800    1.2508    0.0000 N   0  0  0  0  0  0  0  0  0  0  0  0
    3.7539    0.7463    0.0000 N   0  0  0  0  0  0  0  0  0  0  0  0
   -0.2564   -4.4365    0.0000 N   0  0  0  0  0  0  0  0  0  0  0  0
   -0.1200    3.8490    0.0000 N   0  0  0  0  0  0  0  0  0  0  0  0
   -2.3372    2.2381    0.0000 N   0  0  0  0  0  0  0  0  0  0  0  0
    2.3836    0.1361    0.0000 C   0  0  0  0  0  0  0  0  0  0  0  0
    2.0718   -1.3309    0.0000 C   0  0  0  0  0  0  0  0  0  0  0  0
   -0.1200    1.2508    0.0000 C   0  0  0  0  0  0  0  0  0  0  0  0
    2.1300    2.5499    0.0000 C   0  0  0  0  0  0  0  0  0  0  0  0
   -0.8700    2.5499    0.0000 C   0  0  0  0  0  0  0  0  0  0  0  0
    3.0754   -2.4456    0.0000 C   0  0  0  0  0  0  0  0  0  0  0  0
    0.8584   -3.4329    0.0000 C   0  0  0  0  0  0  0  0  0  0  0  0
    0.7014   -1.9411    0.0000 C   0  0  0  0  0  0  0  0  0  0  0  0
    3.5972    2.2381    0.0000 C   0  0  0  0  0  0  0  0  0  0  0  0
   -3.1096   -3.5094    0.0000 C   0  0  0  0  0  0  0  0  0  0  0  0
    1.3800    3.8490    0.0000 C   0  0  0  0  0  0  0  0  0  0  0  0
    2.3254   -3.7447    0.0000 C   0  0  0  0  0  0  0  0  0  0  0  0
   -1.1236    0.1361    0.0000 C   0  0  0  0  0  0  0  0  0  0  0  0
   -4.5768   -3.8212    0.0000 C   0  0  0  0  0  0  0  0  0  0  0  0
   -4.1132   -2.3947    0.0000 C   0  0  0  0  0  0  0  0  0  0  0  0
   -2.4939    0.7463    0.0000 C   0  0  0  0  0  0  0  0  0  0  0  0
    4.5672   -2.2889    0.0000 C   0  0  0  0  0  0  0  0  0  0  0  0
    5.4488   -3.5023    0.0000 C   0  0  0  0  0  0  0  0  0  0  0  0
  1  2  2  0  0  0  0
  1  3  2  0  0  0  0
  1  6  1  0  0  0  0
  1 18  1  0  0  0  0
  4  9  1  0  0  0  0
  4 11  1  0  0  0  0
  4 12  1  0  0  0  0
  5  9  2  0  0  0  0
  5 17  1  0  0  0  0
  6 15  1  0  0  0  0
  7 13  1  0  0  0  0
  7 19  2  0  0  0  0
  8 13  1  0  0  0  0
  8 24  1  0  0  0  0
  9 10  1  0  0  0  0
 10 14  1  0  0  0  0
 10 16  1  0  0  0  0
 11 13  2  0  0  0  0
 11 21  1  0  0  0  0
 12 17  2  0  0  0  0
 12 19  1  0  0  0  0
 14 20  1  0  0  0  0
 14 25  1  0  0  0  0
 15 16  1  0  0  0  0
 15 20  1  0  0  0  0
 18 22  1  0  0  0  0
 18 23  1  0  0  0  0
 21 24  2  0  0  0  0
 22 23  1  0  0  0  0
 25 26  1  0  0  0  0
M  END
> <Value>
6.0999990348465305

> <Relation>
=

> <SourceURI>
mol:CHEMBL1992073

$$$$

Generated by Molecular Materials Informatics

 34 37  0  0  0  0  0  0  0  0999 V2000
    8.3314    5.6327    0.0000 C   0  0  0  0  0  0  0  0  0  0  0  0
    8.3314    4.1327    0.0000 C   0  0  0  0  0  0  0  0  0  0  0  0
    9.6303    3.3827    0.0000 C   0  0  0  0  0  0  0  0  0  0  0  0
   10.9294    4.1327    0.0000 C   0  0  0  0  0  0  0  0  0  0  0  0
   10.9294    5.6327    0.0000 C   0  0  0  0  0  0  0  0  0  0  0  0
    9.6303    6.3827    0.0000 C   0  0  0  0  0  0  0  0  0  0  0  0
   12.2285    3.3827    0.0000 C   0  0  0  0  0  0  0  0  0  0  0  0
   13.5276    4.1327    0.0000 O   0  0  0  0  0  0  0  0  0  0  0  0
   12.2285    1.8827    0.0000 N   0  0  0  0  0  0  0  0  0  0  0  0
   10.9294    1.1327    0.0000 C   0  0  0  0  0  0  0  0  0  0  0  0
   13.5276    1.1327    0.0000 C   0  0  0  0  0  0  0  0  0  0  0  0
   10.9294   -0.3673    0.0000 C   0  0  0  0  0  0  0  0  0  0  0  0
    9.6303   -1.1173    0.0000 C   0  0  0  0  0  0  0  0  0  0  0  0
    9.6303    1.8827    0.0000 C   0  0  0  0  0  0  0  0  0  0  0  0
    8.3314    1.1327    0.0000 C   0  0  0  0  0  0  0  0  0  0  0  0
    8.3314   -0.3673    0.0000 C   0  0  0  0  0  0  0  0  0  0  0  0
    6.9048   -0.8309    0.0000 N   0  0  0  0  0  0  0  0  0  0  0  0
    6.0230    0.3827    0.0000 C   0  0  0  0  0  0  0  0  0  0  0  0
    6.9048    1.5962    0.0000 N   0  0  0  0  0  0  0  0  0  0  0  0
    4.5230    0.3827    0.0000 N   0  0  0  0  0  0  0  0  0  0  0  0
    3.7730   -0.9164    0.0000 C   0  0  0  0  0  0  0  0  0  0  0  0
    2.2730   -0.9164    0.0000 C   0  0  0  0  0  0  0  0  0  0  0  0
    4.5230   -2.2155    0.0000 O   0  0  0  0  0  0  0  0  0  0  0  0
    1.5230   -2.2155    0.0000 C   0  0  0  0  0  0  0  0  0  0  0  0
    0.0230   -2.2155    0.0000 C   0  0  0  0  0  0  0  0  0  0  0  0
   -0.7270   -0.9164    0.0000 C   0  0  0  0  0  0  0  0  0  0  0  0
    0.0230    0.3827    0.0000 C   0  0  0  0  0  0  0  0  0  0  0  0
    1.5230    0.3827    0.0000 C   0  0  0  0  0  0  0  0  0  0  0  0
    6.4412   -2.2575    0.0000 C   0  0  0  0  0  0  0  0  0  0  0  0
   -2.2270   -0.9164    0.0000 C   0  0  0  0  0  0  0  0  0  0  0  0
   -3.7270   -0.9164    0.0000 N   0  0  0  0  0  0  0  0  0  0  0  0
    7.4448   -3.3722    0.0000 C   0  0  0  0  0  0  0  0  0  0  0  0
    8.9121   -3.0604    0.0000 C   0  0  0  0  0  0  0  0  0  0  0  0
    9.9158   -4.1751    0.0000 C   0  0  0  0  0  0  0  0  0  0  0  0
  7  8  2  0  0  0  0
  1  6  1  0  0  0  0
  7  9  1  0  0  0  0
 16 17  1  0  0  0  0
 17 18  1  0  0  0  0
 18 19  2  0  0  0  0
 19 15  1  0  0  0  0
  2  3  1  0  0  0  0
 18 20  1  0  0  0  0
  9 10  1  0  0  0  0
 20 21  1  0  0  0  0
  3  4  1  0  0  0  0
 21 22  1  0  0  0  0
  9 11  1  0  0  0  0
 21 23  2  0  0  0  0
  4  5  1  0  0  0  0
 22 24  2  0  0  0  0
 10 12  2  0  0  0  0
 24 25  1  0  0  0  0
  5  6  1  0  0  0  0
 25 26  2  0  0  0  0
 12 13  1  0  0  0  0
 26 27  1  0  0  0  0
 13 16  2  0  0  0  0
 27 28  2  0  0  0  0
 28 22  1  0  0  0  0
 17 29  1  0  0  0  0
 15 14  2  0  0  0  0
 26 30  1  0  0  0  0
 14 10  1  0  0  0  0
 30 31  3  0  0  0  0
 15 16  1  0  0  0  0
 29 32  1  0  0  0  0
  4  7  1  0  0  0  0
 32 33  1  0  0  0  0
  1  2  1  0  0  0  0
 33 34  1  0  0  0  0
M  END
> <Value>
5.899998417198648

> <Relation>
<

> <SourceURI>
mol:CHEMBL484390

$$$$

Generated by Molecular Materials Informatics

 25 27  0  0  0  0  0  0  0  0999 V2000
    7.3879   -1.1268    0.0000 F   0  0  0  0  0  0  0  0  0  0  0  0
    5.3388   -1.6759    0.0000 F   0  0  0  0  0  0  0  0  0  0  0  0
    7.9368   -3.1759    0.0000 F   0  0  0  0  0  0  0  0  0  0  0  0
   -3.7336   -3.7250    0.0000 O   0  0  0  0  0  0  0  0  0  0  0  0
   -1.1728   -6.2856    0.0000 O   0  0  0  0  0  0  0  0  0  0  0  0
   -1.1728   -1.1643    0.0000 N   0  0  0  0  0  0  0  0  0  0  0  0
    1.3879   -3.7250    0.0000 N   0  0  0  0  0  0  0  0  0  0  0  0
   -5.0699    1.0857    0.0000 N   0  0  0  0  0  0  0  0  0  0  0  0
   -1.1728   -2.6643    0.0000 C   0  0  0  0  0  0  0  0  0  0  0  0
   -0.1121   -3.7250    0.0000 C   0  0  0  0  0  0  0  0  0  0  0  0
   -2.2335   -3.7250    0.0000 C   0  0  0  0  0  0  0  0  0  0  0  0
   -1.1728   -4.7856    0.0000 C   0  0  0  0  0  0  0  0  0  0  0  0
   -2.4719   -0.4143    0.0000 C   0  0  0  0  0  0  0  0  0  0  0  0
    2.1379   -5.0239    0.0000 C   0  0  0  0  0  0  0  0  0  0  0  0
    3.6379   -5.0239    0.0000 C   0  0  0  0  0  0  0  0  0  0  0  0
    5.8879   -3.7250    0.0000 C   0  0  0  0  0  0  0  0  0  0  0  0
    6.6379   -2.4259    0.0000 C   0  0  0  0  0  0  0  0  0  0  0  0
    4.3879   -3.7250    0.0000 C   0  0  0  0  0  0  0  0  0  0  0  0
    4.3879   -6.3230    0.0000 C   0  0  0  0  0  0  0  0  0  0  0  0
    6.6379   -5.0239    0.0000 C   0  0  0  0  0  0  0  0  0  0  0  0
   -2.4719    1.0857    0.0000 C   0  0  0  0  0  0  0  0  0  0  0  0
   -3.7708   -1.1643    0.0000 C   0  0  0  0  0  0  0  0  0  0  0  0
    5.8879   -6.3230    0.0000 C   0  0  0  0  0  0  0  0  0  0  0  0
   -3.7708    1.8357    0.0000 C   0  0  0  0  0  0  0  0  0  0  0  0
   -5.0699   -0.4143    0.0000 C   0  0  0  0  0  0  0  0  0  0  0  0
  1 17  1  0  0  0  0
  2 17  1  0  0  0  0
  3 17  1  0  0  0  0
  4 11  2  0  0  0  0
  5 12  2  0  0  0  0
  6  9  1  0  0  0  0
  6 13  1  0  0  0  0
  7 10  1  0  0  0  0
  7 14  1  0  0  0  0
  8 24  2  0  0  0  0
  8 25  1  0  0  0  0
  9 10  2  0  0  0  0
  9 11  1  0  0  0  0
 10 12  1  0  0  0  0
 11 12  1  0  0  0  0
 13 21  2  0  0  0  0
 13 22  1  0  0  0  0
 14 15  1  0  0  0  0
 15 18  2  0  0  0  0
 15 19  1  0  0  0  0
 16 17  1  0  0  0  0
 16 18  1  0  0  0  0
 16 20  2  0  0  0  0
 19 23  2  0  0  0  0
 20 23  1  0  0  0  0
 21 24  1  0  0  0  0
 22 25  2  0  0  0  0
M  END
> <Value>
6.0

> <Relation>
=

> <SourceURI>
mol:CHEMBL1979252

$$$$

Generated by Molecular Materials Informatics

 25 27  0  0  0  0  0  0  0  0999 V2000
    3.6047   -1.3875    0.0000 O   0  0  0  0  0  0  0  0  0  0  0  0
    6.2028   -1.3875    0.0000 O   0  0  0  0  0  0  0  0  0  0  0  0
    2.3056   -3.6375    0.0000 N   0  0  0  0  0  0  0  0  0  0  0  0
   -5.4883    2.3623    0.0000 N   0  0  0  0  0  0  0  0  0  0  0  0
    1.0068   -1.3875    0.0000 C   0  0  0  0  0  0  0  0  0  0  0  0
   -1.5913    0.1124    0.0000 C   0  0  0  0  0  0  0  0  0  0  0  0
    2.3056   -2.1375    0.0000 C   0  0  0  0  0  0  0  0  0  0  0  0
   -2.8902    0.8624    0.0000 C   0  0  0  0  0  0  0  0  0  0  0  0
    3.6047   -4.3875    0.0000 C   0  0  0  0  0  0  0  0  0  0  0  0
   -0.2923   -2.1375    0.0000 C   0  0  0  0  0  0  0  0  0  0  0  0
    1.0068    0.1124    0.0000 C   0  0  0  0  0  0  0  0  0  0  0  0
   -1.5913   -1.3875    0.0000 C   0  0  0  0  0  0  0  0  0  0  0  0
   -0.2923    0.8624    0.0000 C   0  0  0  0  0  0  0  0  0  0  0  0
    3.6047   -5.8874    0.0000 C   0  0  0  0  0  0  0  0  0  0  0  0
   -2.8902    2.3623    0.0000 C   0  0  0  0  0  0  0  0  0  0  0  0
   -4.1892    0.1124    0.0000 C   0  0  0  0  0  0  0  0  0  0  0  0
    4.9037   -3.6375    0.0000 C   0  0  0  0  0  0  0  0  0  0  0  0
    4.9037   -6.6374    0.0000 C   0  0  0  0  0  0  0  0  0  0  0  0
    2.3056   -6.6374    0.0000 C   0  0  0  0  0  0  0  0  0  0  0  0
   -4.1892    3.1123    0.0000 C   0  0  0  0  0  0  0  0  0  0  0  0
   -5.4883    0.8624    0.0000 C   0  0  0  0  0  0  0  0  0  0  0  0
    4.9037   -8.1373    0.0000 C   0  0  0  0  0  0  0  0  0  0  0  0
    2.3056   -8.1373    0.0000 C   0  0  0  0  0  0  0  0  0  0  0  0
    3.6047   -8.8873    0.0000 C   0  0  0  0  0  0  0  0  0  0  0  0
    4.9037   -2.1375    0.0000 C   0  0  0  0  0  0  0  0  0  0  0  0
  1  7  2  0  0  0  0
  2 25  1  0  0  0  0
  3  7  1  0  0  0  0
  3  9  1  0  0  0  0
  4 20  2  0  0  0  0
  4 21  1  0  0  0  0
  5  7  1  0  0  0  0
  5 10  2  0  0  0  0
  5 11  1  0  0  0  0
  6  8  1  0  0  0  0
  6 12  2  0  0  0  0
  6 13  1  0  0  0  0
  8 15  2  0  0  0  0
  8 16  1  0  0  0  0
  9 14  1  0  0  0  0
  9 17  1  0  0  0  0
 10 12  1  0  0  0  0
 11 13  2  0  0  0  0
 14 18  2  0  0  0  0
 14 19  1  0  0  0  0
 15 20  1  0  0  0  0
 16 21  2  0  0  0  0
 17 25  1  0  0  0  0
 18 22  1  0  0  0  0
 19 23  2  0  0  0  0
 22 24  2  0  0  0  0
 23 24  1  0  0  0  0
M  END
> <Value>
5.300000202445418

> <Relation>
<

> <SourceURI>
mol:CHEMBL1986143

$$$$

Generated by Molecular Materials Informatics

 28 30  0  0  0  0  0  0  0  0999 V2000
   -3.0007  -10.5311    0.0000 S   0  0  0  0  0  0  0  0  0  0  0  0
   -8.5085  -12.0638    0.0000 F   0  0  0  0  0  0  0  0  0  0  0  0
   -6.4595  -12.6129    0.0000 F   0  0  0  0  0  0  0  0  0  0  0  0
   -7.9594  -10.0148    0.0000 F   0  0  0  0  0  0  0  0  0  0  0  0
    1.8836   -0.0641    0.0000 O   0  0  0  0  0  0  0  0  0  0  0  0
   -2.0134   -6.8139    0.0000 N   0  0  0  0  0  0  0  0  0  0  0  0
   -4.6115   -6.8139    0.0000 N   0  0  0  0  0  0  0  0  0  0  0  0
   -5.9106   -9.0639    0.0000 N   0  0  0  0  0  0  0  0  0  0  0  0
   -3.3125   -4.5640    0.0000 N   0  0  0  0  0  0  0  0  0  0  0  0
    3.1824   -2.3141    0.0000 N   0  0  0  0  0  0  0  0  0  0  0  0
   -3.3125   -9.0639    0.0000 C   0  0  0  0  0  0  0  0  0  0  0  0
   -2.0134   -8.3139    0.0000 C   0  0  0  0  0  0  0  0  0  0  0  0
   -4.6115   -8.3139    0.0000 C   0  0  0  0  0  0  0  0  0  0  0  0
   -3.3125   -6.0640    0.0000 C   0  0  0  0  0  0  0  0  0  0  0  0
   -0.8987   -9.3175    0.0000 C   0  0  0  0  0  0  0  0  0  0  0  0
   -1.5089  -10.6878    0.0000 C   0  0  0  0  0  0  0  0  0  0  0  0
   -2.0134   -3.8140    0.0000 C   0  0  0  0  0  0  0  0  0  0  0  0
   -5.9106  -10.5638    0.0000 C   0  0  0  0  0  0  0  0  0  0  0  0
   -7.2094  -11.3138    0.0000 C   0  0  0  0  0  0  0  0  0  0  0  0
    0.5845   -2.3141    0.0000 C   0  0  0  0  0  0  0  0  0  0  0  0
   -2.0134   -2.3141    0.0000 C   0  0  0  0  0  0  0  0  0  0  0  0
   -0.7145   -4.5640    0.0000 C   0  0  0  0  0  0  0  0  0  0  0  0
   -0.7145   -1.5641    0.0000 C   0  0  0  0  0  0  0  0  0  0  0  0
    0.5845   -3.8140    0.0000 C   0  0  0  0  0  0  0  0  0  0  0  0
    1.8836   -1.5641    0.0000 C   0  0  0  0  0  0  0  0  0  0  0  0
    4.4815   -1.5641    0.0000 C   0  0  0  0  0  0  0  0  0  0  0  0
    5.7805   -2.3141    0.0000 C   0  0  0  0  0  0  0  0  0  0  0  0
    7.0796   -1.5641    0.0000 C   0  0  0  0  0  0  0  0  0  0  0  0
  1 11  1  0  0  0  0
  1 16  1  0  0  0  0
  2 19  1  0  0  0  0
  3 19  1  0  0  0  0
  4 19  1  0  0  0  0
  5 25  2  0  0  0  0
  6 12  2  0  0  0  0
  6 14  1  0  0  0  0
  7 13  1  0  0  0  0
  7 14  2  0  0  0  0
  8 13  1  0  0  0  0
  8 18  1  0  0  0  0
  9 14  1  0  0  0  0
  9 17  1  0  0  0  0
 10 25  1  0  0  0  0
 10 26  1  0  0  0  0
 11 12  1  0  0  0  0
 11 13  2  0  0  0  0
 12 15  1  0  0  0  0
 15 16  2  0  0  0  0
 17 21  2  0  0  0  0
 17 22  1  0  0  0  0
 18 19  1  0  0  0  0
 20 23  2  0  0  0  0
 20 24  1  0  0  0  0
 20 25  1  0  0  0  0
 21 23  1  0  0  0  0
 22 24  2  0  0  0  0
 26 27  1  0  0  0  0
 27 28  1  0  0  0  0
M  END
> <Value>
5.300000202445418

> <Relation>
<

> <SourceURI>
mol:CHEMBL2007559

$$$$

Generated by Molecular Materials Informatics

 26 28  0  0  0  0  0  0  0  0999 V2000
   -7.5993    6.4125    0.0000 S   0  0  0  0  0  0  0  0  0  0  0  0
   -8.8984    8.6625    0.0000 F   0  0  0  0  0  0  0  0  0  0  0  0
   -6.3004    8.6625    0.0000 F   0  0  0  0  0  0  0  0  0  0  0  0
   -1.1042    1.1625    0.0000 O   0  0  0  0  0  0  0  0  0  0  0  0
   -2.4033    3.4125    0.0000 N   0  0  0  0  0  0  0  0  0  0  0  0
   -5.0013   -7.0875    0.0000 N   0  0  0  0  0  0  0  0  0  0  0  0
   -3.7022   -3.3375    0.0000 C   0  0  0  0  0  0  0  0  0  0  0  0
   -3.7022   -4.8375    0.0000 C   0  0  0  0  0  0  0  0  0  0  0  0
   -3.7022   -0.3375    0.0000 C   0  0  0  0  0  0  0  0  0  0  0  0
   -3.7022    4.1625    0.0000 C   0  0  0  0  0  0  0  0  0  0  0  0
   -6.3004    5.6625    0.0000 C   0  0  0  0  0  0  0  0  0  0  0  0
   -2.4033    1.9125    0.0000 C   0  0  0  0  0  0  0  0  0  0  0  0
   -5.0013   -2.5875    0.0000 C   0  0  0  0  0  0  0  0  0  0  0  0
   -2.4033   -2.5875    0.0000 C   0  0  0  0  0  0  0  0  0  0  0  0
   -3.7022    1.1625    0.0000 C   0  0  0  0  0  0  0  0  0  0  0  0
   -5.0013   -1.0875    0.0000 C   0  0  0  0  0  0  0  0  0  0  0  0
   -2.4033   -1.0875    0.0000 C   0  0  0  0  0  0  0  0  0  0  0  0
   -5.0013    3.4125    0.0000 C   0  0  0  0  0  0  0  0  0  0  0  0
   -3.7022    5.6625    0.0000 C   0  0  0  0  0  0  0  0  0  0  0  0
   -6.3004    4.1625    0.0000 C   0  0  0  0  0  0  0  0  0  0  0  0
   -5.0013    6.4125    0.0000 C   0  0  0  0  0  0  0  0  0  0  0  0
   -5.0013   -5.5875    0.0000 C   0  0  0  0  0  0  0  0  0  0  0  0
   -2.4033   -5.5875    0.0000 C   0  0  0  0  0  0  0  0  0  0  0  0
   -2.4033   -7.0875    0.0000 C   0  0  0  0  0  0  0  0  0  0  0  0
   -7.5993    7.9125    0.0000 C   0  0  0  0  0  0  0  0  0  0  0  0
   -3.7022   -7.8375    0.0000 C   0  0  0  0  0  0  0  0  0  0  0  0
  1 11  1  0  0  0  0
  1 25  1  0  0  0  0
  2 25  1  0  0  0  0
  3 25  1  0  0  0  0
  4 12  2  0  0  0  0
  5 10  1  0  0  0  0
  5 12  1  0  0  0  0
  6 22  2  0  0  0  0
  6 26  1  0  0  0  0
  7  8  1  0  0  0  0
  7 13  2  0  0  0  0
  7 14  1  0  0  0  0
  8 22  1  0  0  0  0
  8 23  2  0  0  0  0
  9 15  1  0  0  0  0
  9 16  2  0  0  0  0
  9 17  1  0  0  0  0
 10 18  2  0  0  0  0
 10 19  1  0  0  0  0
 11 20  2  0  0  0  0
 11 21  1  0  0  0  0
 12 15  1  0  0  0  0
 13 16  1  0  0  0  0
 14 17  2  0  0  0  0
 18 20  1  0  0  0  0
 19 21  2  0  0  0  0
 23 24  1  0  0  0  0
 24 26  2  0  0  0  0
M  END
> <Value>
5.300000202445418

> <Relation>
<

> <SourceURI>
mol:CHEMBL1992581

$$$$

Generated by Molecular Materials Informatics

 21 24  0  0  0  0  0  0  0  0999 V2000
    8.8629   -7.6911    0.0000 C   0  0  0  0  0  0  0  0  0  0  0  0
    8.8607   -9.1951    0.0000 C   0  0  0  0  0  0  0  0  0  0  0  0
   10.1605   -9.9458    0.0000 C   0  0  0  0  0  0  0  0  0  0  0  0
   10.1572   -6.9406    0.0000 C   0  0  0  0  0  0  0  0  0  0  0  0
   11.4576   -7.6843    0.0000 C   0  0  0  0  0  0  0  0  0  0  0  0
   11.4582   -9.1953    0.0000 C   0  0  0  0  0  0  0  0  0  0  0  0
   12.8954   -9.6618    0.0000 N   0  0  0  0  0  0  0  0  0  0  0  0
   13.7831   -8.4392    0.0000 N   0  0  0  0  0  0  0  0  0  0  0  0
   12.8944   -7.2171    0.0000 C   0  0  0  0  0  0  0  0  0  0  0  0
    7.5638   -6.9413    0.0000 N   0  0  0  0  0  0  0  0  0  0  0  0
    7.4139   -5.4420    0.0000 C   0  0  0  0  0  0  0  0  0  0  0  0
    5.9468   -5.1305    0.0000 C   0  0  0  0  0  0  0  0  0  0  0  0
    5.1970   -6.4297    0.0000 N   0  0  0  0  0  0  0  0  0  0  0  0
    6.2011   -7.5440    0.0000 N   0  0  0  0  0  0  0  0  0  0  0  0
    5.1801   -3.8412    0.0000 C   0  0  0  0  0  0  0  0  0  0  0  0
    5.9122   -2.5322    0.0000 C   0  0  0  0  0  0  0  0  0  0  0  0
    7.4067   -2.5180    0.0000 C   0  0  0  0  0  0  0  0  0  0  0  0
    8.1388   -1.2104    0.0000 C   0  0  0  0  0  0  0  0  0  0  0  0
    7.3710    0.0800    0.0000 C   0  0  0  0  0  0  0  0  0  0  0  0
    5.8637    0.0545    0.0000 C   0  0  0  0  0  0  0  0  0  0  0  0
    5.1383   -1.2539    0.0000 C   0  0  0  0  0  0  0  0  0  0  0  0
  1 10  1  0  0  0  0
 10 11  1  0  0  0  0
  5  6  1  0  0  0  0
  2  3  1  0  0  0  0
  3  6  2  0  0  0  0
 11 12  2  0  0  0  0
 12 13  1  0  0  0  0
 13 14  2  0  0  0  0
 14 10  1  0  0  0  0
  1  2  2  0  0  0  0
 12 15  1  0  0  0  0
  5  4  2  0  0  0  0
 15 16  1  0  0  0  0
  6  7  1  0  0  0  0
 16 17  2  0  0  0  0
  7  8  1  0  0  0  0
 17 18  1  0  0  0  0
  8  9  2  0  0  0  0
 18 19  2  0  0  0  0
  9  5  1  0  0  0  0
 19 20  1  0  0  0  0
  4  1  1  0  0  0  0
 20 21  2  0  0  0  0
 21 16  1  0  0  0  0
M  END
> <Value>
6.399996913372259

> <Relation>
=

> <SourceURI>
mol:CHEMBL1682341

$$$$

Generated by Molecular Materials Informatics

 38 42  0  0  0  0  0  0  0  0999 V2000
    1.2273    3.2022    0.0000 S   0  0  0  0  0  0  0  0  0  0  0  0
    3.5415   11.2512    0.0000 O   0  0  0  0  0  0  0  0  0  0  0  0
   -3.0978   -4.1283    0.0000 O   0  0  0  0  0  0  0  0  0  0  0  0
   -8.4265   -7.9170    0.0000 O   0  0  0  0  0  0  0  0  0  0  0  0
    5.2520    1.2386    0.0000 N   0  0  0  0  0  0  0  0  0  0  0  0
    3.2030    7.2970    0.0000 N   0  0  0  0  0  0  0  0  0  0  0  0
    4.7030    7.2970    0.0000 N   0  0  0  0  0  0  0  0  0  0  0  0
    3.9530   -1.0114    0.0000 N   0  0  0  0  0  0  0  0  0  0  0  0
   -0.6269   -4.9312    0.0000 N   0  0  0  0  0  0  0  0  0  0  0  0
   -2.5576   -6.6696    0.0000 N   0  0  0  0  0  0  0  0  0  0  0  0
    2.6539    1.2386    0.0000 C   0  0  0  0  0  0  0  0  0  0  0  0
    2.6539    2.7386    0.0000 C   0  0  0  0  0  0  0  0  0  0  0  0
    1.2273    0.7752    0.0000 C   0  0  0  0  0  0  0  0  0  0  0  0
    3.9530    3.4886    0.0000 C   0  0  0  0  0  0  0  0  0  0  0  0
    3.9530    0.4886    0.0000 C   0  0  0  0  0  0  0  0  0  0  0  0
    3.9530    4.9886    0.0000 C   0  0  0  0  0  0  0  0  0  0  0  0
    0.7639   -0.6514    0.0000 C   0  0  0  0  0  0  0  0  0  0  0  0
    0.3457    1.9886    0.0000 C   0  0  0  0  0  0  0  0  0  0  0  0
    5.2520    2.7386    0.0000 C   0  0  0  0  0  0  0  0  0  0  0  0
    2.7393    5.8704    0.0000 C   0  0  0  0  0  0  0  0  0  0  0  0
    5.1664    5.8704    0.0000 C   0  0  0  0  0  0  0  0  0  0  0  0
    1.7675   -1.7661    0.0000 C   0  0  0  0  0  0  0  0  0  0  0  0
   -0.7034   -0.9632    0.0000 C   0  0  0  0  0  0  0  0  0  0  0  0
   -0.1632   -3.5047    0.0000 C   0  0  0  0  0  0  0  0  0  0  0  0
    1.3039   -3.1927    0.0000 C   0  0  0  0  0  0  0  0  0  0  0  0
   -1.1670   -2.3899    0.0000 C   0  0  0  0  0  0  0  0  0  0  0  0
    2.3213    8.5104    0.0000 C   0  0  0  0  0  0  0  0  0  0  0  0
    2.9313    9.8808    0.0000 C   0  0  0  0  0  0  0  0  0  0  0  0
   -2.0939   -5.2430    0.0000 C   0  0  0  0  0  0  0  0  0  0  0  0
   -4.0247   -6.9816    0.0000 C   0  0  0  0  0  0  0  0  0  0  0  0
    1.5610   10.4910    0.0000 C   0  0  0  0  0  0  0  0  0  0  0  0
    4.3017    9.2706    0.0000 C   0  0  0  0  0  0  0  0  0  0  0  0
   -4.4883   -8.4081    0.0000 C   0  0  0  0  0  0  0  0  0  0  0  0
   -5.0285   -5.8668    0.0000 C   0  0  0  0  0  0  0  0  0  0  0  0
   -6.9592   -7.6052    0.0000 C   0  0  0  0  0  0  0  0  0  0  0  0
   -5.9556   -8.7199    0.0000 C   0  0  0  0  0  0  0  0  0  0  0  0
   -6.4958   -6.1787    0.0000 C   0  0  0  0  0  0  0  0  0  0  0  0
   -8.8899   -9.3438    0.0000 C   0  0  0  0  0  0  0  0  0  0  0  0
  1 12  1  0  0  0  0
  1 18  1  0  0  0  0
  2 28  1  0  0  0  0
  3 29  2  0  0  0  0
  4 35  1  0  0  0  0
  4 38  1  0  0  0  0
  5 15  1  0  0  0  0
  5 19  2  0  0  0  0
  6  7  1  0  0  0  0
  6 20  1  0  0  0  0
  6 27  1  0  0  0  0
  7 21  2  0  0  0  0
  8 15  1  0  0  0  0
  9 24  1  0  0  0  0
  9 29  1  0  0  0  0
 10 29  1  0  0  0  0
 10 30  1  0  0  0  0
 11 12  1  0  0  0  0
 11 13  1  0  0  0  0
 11 15  2  0  0  0  0
 12 14  2  0  0  0  0
 13 17  1  0  0  0  0
 13 18  2  0  0  0  0
 14 16  1  0  0  0  0
 14 19  1  0  0  0  0
 16 20  2  0  0  0  0
 16 21  1  0  0  0  0
 17 22  2  0  0  0  0
 17 23  1  0  0  0  0
 22 25  1  0  0  0  0
 23 26  2  0  0  0  0
 24 25  2  0  0  0  0
 24 26  1  0  0  0  0
 27 28  1  0  0  0  0
 28 31  1  0  0  0  0
 28 32  1  0  0  0  0
 30 33  2  0  0  0  0
 30 34  1  0  0  0  0
 33 36  1  0  0  0  0
 34 37  2  0  0  0  0
 35 36  2  0  0  0  0
 35 37  1  0  0  0  0
M  END
> <Value>
5.499999678657065

> <Relation>
<

> <SourceURI>
mol:CHEMBL2004290

$$$$

Generated by Molecular Materials Informatics

 17 19  0  0  0  0  0  0  0  0999 V2000
   -2.9879   -2.9989    0.0000 S   0  0  0  0  0  0  0  0  0  0  0  0
   -1.0977   -1.1089    0.0000 N   0  0  0  0  0  0  0  0  0  0  0  0
   -1.0977    1.3182    0.0000 N   0  0  0  0  0  0  0  0  0  0  0  0
   -0.6796   -3.7489    0.0000 N   0  0  0  0  0  0  0  0  0  0  0  0
   -3.4794    0.1047    0.0000 N   0  0  0  0  0  0  0  0  0  0  0  0
    5.5250   -2.1453    0.0000 N   0  0  0  0  0  0  0  0  0  0  0  0
    0.3288   -0.6453    0.0000 C   0  0  0  0  0  0  0  0  0  0  0  0
    0.3288    0.8547    0.0000 C   0  0  0  0  0  0  0  0  0  0  0  0
   -1.9794    0.1047    0.0000 C   0  0  0  0  0  0  0  0  0  0  0  0
   -1.5612   -2.5354    0.0000 C   0  0  0  0  0  0  0  0  0  0  0  0
    1.6279   -1.3953    0.0000 C   0  0  0  0  0  0  0  0  0  0  0  0
    1.6279    1.6047    0.0000 C   0  0  0  0  0  0  0  0  0  0  0  0
    2.9270   -0.6453    0.0000 C   0  0  0  0  0  0  0  0  0  0  0  0
    2.9270    0.8547    0.0000 C   0  0  0  0  0  0  0  0  0  0  0  0
   -2.9879   -4.4989    0.0000 C   0  0  0  0  0  0  0  0  0  0  0  0
   -1.5612   -4.9625    0.0000 C   0  0  0  0  0  0  0  0  0  0  0  0
    4.2259   -1.3953    0.0000 C   0  0  0  0  0  0  0  0  0  0  0  0
  1 10  1  0  0  0  0
  1 15  1  0  0  0  0
  2  7  1  0  0  0  0
  2  9  1  0  0  0  0
  2 10  1  0  0  0  0
  3  8  1  0  0  0  0
  3  9  2  0  0  0  0
  4 10  2  0  0  0  0
  4 16  1  0  0  0  0
  5  9  1  0  0  0  0
  6 17  3  0  0  0  0
  7  8  1  0  0  0  0
  7 11  2  0  0  0  0
  8 12  2  0  0  0  0
 11 13  1  0  0  0  0
 12 14  1  0  0  0  0
 13 14  2  0  0  0  0
 13 17  1  0  0  0  0
 15 16  2  0  0  0  0
M  END
> <Value>
5.300000202445418

> <Relation>
=

> <SourceURI>
mol:CHEMBL1988805

$$$$

Generated by Molecular Materials Informatics

 33 36  0  0  0  0  0  0  0  0999 V2000
    4.4417   -6.2612    0.0000 C   0  0  0  0  0  0  0  0  0  0  0  0
    4.4417   -7.7612    0.0000 C   0  0  0  0  0  0  0  0  0  0  0  0
    3.1426   -8.5111    0.0000 O   0  0  0  0  0  0  0  0  0  0  0  0
    1.8436   -7.7612    0.0000 C   0  0  0  0  0  0  0  0  0  0  0  0
    1.8436   -6.2612    0.0000 C   0  0  0  0  0  0  0  0  0  0  0  0
    3.1426   -5.5112    0.0000 N   0  0  0  0  0  0  0  0  0  0  0  0
    3.1426   -4.0113    0.0000 C   0  0  0  0  0  0  0  0  0  0  0  0
    4.4417   -3.2613    0.0000 C   0  0  0  0  0  0  0  0  0  0  0  0
    4.4417   -1.7613    0.0000 C   0  0  0  0  0  0  0  0  0  0  0  0
    5.7407   -1.0114    0.0000 O   0  0  0  0  0  0  0  0  0  0  0  0
    7.0396   -1.7613    0.0000 C   0  0  0  0  0  0  0  0  0  0  0  0
    1.8436   -3.2613    0.0000 C   0  0  0  0  0  0  0  0  0  0  0  0
    1.8436   -1.7613    0.0000 C   0  0  0  0  0  0  0  0  0  0  0  0
    3.1426   -1.0114    0.0000 C   0  0  0  0  0  0  0  0  0  0  0  0
    3.1426    0.4886    0.0000 N   0  0  0  0  0  0  0  0  0  0  0  0
    4.4417    1.2386    0.0000 C   0  0  0  0  0  0  0  0  0  0  0  0
    4.4417    2.7385    0.0000 N   0  0  0  0  0  0  0  0  0  0  0  0
    5.7407    0.4886    0.0000 N   0  0  0  0  0  0  0  0  0  0  0  0
    7.0396    1.2386    0.0000 C   0  0  0  0  0  0  0  0  0  0  0  0
    7.0396    2.7385    0.0000 C   0  0  0  0  0  0  0  0  0  0  0  0
    8.3386    3.4885    0.0000 Cl  0  0  0  0  0  0  0  0  0  0  0  0
    5.7407    3.4885    0.0000 C   0  0  0  0  0  0  0  0  0  0  0  0
    5.7407    4.9885    0.0000 N   0  0  0  0  0  0  0  0  0  0  0  0
    4.4417    5.7384    0.0000 C   0  0  0  0  0  0  0  0  0  0  0  0
    3.1426    4.9885    0.0000 C   0  0  0  0  0  0  0  0  0  0  0  0
    1.8436    5.7384    0.0000 C   0  0  0  0  0  0  0  0  0  0  0  0
    1.8436    7.2384    0.0000 C   0  0  0  0  0  0  0  0  0  0  0  0
    3.1426    7.9884    0.0000 C   0  0  0  0  0  0  0  0  0  0  0  0
    4.4417    7.2384    0.0000 C   0  0  0  0  0  0  0  0  0  0  0  0
    5.7407    7.9884    0.0000 C   0  0  0  0  0  0  0  0  0  0  0  0
    5.7407    9.4883    0.0000 O   0  0  0  0  0  0  0  0  0  0  0  0
    7.0396    7.2384    0.0000 N   0  0  0  0  0  0  0  0  0  0  0  0
    8.3386    7.9884    0.0000 C   0  0  0  0  0  0  0  0  0  0  0  0
  1  2  1  0  0  0  0
  1  6  1  0  0  0  0
  2  3  1  0  0  0  0
  4  3  1  0  0  0  0
  5  4  1  0  0  0  0
  5  6  1  0  0  0  0
  7  6  1  0  0  0  0
  8  7  1  0  0  0  0
 12  7  2  0  0  0  0
  9  8  2  0  0  0  0
  9 10  1  0  0  0  0
 14  9  1  0  0  0  0
 11 10  1  0  0  0  0
 13 12  1  0  0  0  0
 14 13  2  0  0  0  0
 14 15  1  0  0  0  0
 16 15  1  0  0  0  0
 16 17  1  0  0  0  0
 16 18  2  0  0  0  0
 22 17  2  0  0  0  0
 19 18  1  0  0  0  0
 20 19  2  0  0  0  0
 20 21  1  0  0  0  0
 22 20  1  0  0  0  0
 22 23  1  0  0  0  0
 24 23  1  0  0  0  0
 24 25  1  0  0  0  0
 24 29  2  0  0  0  0
 25 26  2  0  0  0  0
 26 27  1  0  0  0  0
 28 27  2  0  0  0  0
 29 28  1  0  0  0  0
 30 29  1  0  0  0  0
 30 31  2  0  0  0  0
 30 32  1  0  0  0  0
 33 32  1  0  0  0  0
M  END
> <Value>
7.0

> <Relation>
=

> <SourceURI>
mol:CHEMBL458997

$$$$

Generated by Molecular Materials Informatics

 32 35  0  0  0  0  0  0  0  0999 V2000
    5.1962    0.7747    0.0000 F   0  0  0  0  0  0  0  0  0  0  0  0
    4.6471   -1.2744    0.0000 F   0  0  0  0  0  0  0  0  0  0  0  0
    3.1471    1.3238    0.0000 F   0  0  0  0  0  0  0  0  0  0  0  0
   -1.8902    5.6649    0.0000 O   0  0  0  0  0  0  0  0  0  0  0  0
   -1.2991   -4.4753    0.0000 O   0  0  0  0  0  0  0  0  0  0  0  0
   -2.3082    3.0247    0.0000 N   0  0  0  0  0  0  0  0  0  0  0  0
    1.2991   -4.4753    0.0000 N   0  0  0  0  0  0  0  0  0  0  0  0
    0.0000   -6.7253    0.0000 N   0  0  0  0  0  0  0  0  0  0  0  0
    1.2991    0.0247    0.0000 C   0  0  0  0  0  0  0  0  0  0  0  0
    1.2991    1.5247    0.0000 C   0  0  0  0  0  0  0  0  0  0  0  0
    0.0000    2.2747    0.0000 C   0  0  0  0  0  0  0  0  0  0  0  0
    2.5980   -0.7253    0.0000 C   0  0  0  0  0  0  0  0  0  0  0  0
    0.0000    3.7747    0.0000 C   0  0  0  0  0  0  0  0  0  0  0  0
    3.8971    0.0247    0.0000 C   0  0  0  0  0  0  0  0  0  0  0  0
   -1.4265    4.2382    0.0000 C   0  0  0  0  0  0  0  0  0  0  0  0
    2.5980   -2.2253    0.0000 C   0  0  0  0  0  0  0  0  0  0  0  0
    0.0000   -0.7253    0.0000 C   0  0  0  0  0  0  0  0  0  0  0  0
    2.5980    2.2747    0.0000 C   0  0  0  0  0  0  0  0  0  0  0  0
   -1.4265    1.8113    0.0000 C   0  0  0  0  0  0  0  0  0  0  0  0
    1.2991   -2.9753    0.0000 C   0  0  0  0  0  0  0  0  0  0  0  0
    1.2991    4.5247    0.0000 C   0  0  0  0  0  0  0  0  0  0  0  0
    0.0000   -2.2253    0.0000 C   0  0  0  0  0  0  0  0  0  0  0  0
    2.5980    3.7747    0.0000 C   0  0  0  0  0  0  0  0  0  0  0  0
    0.0000   -5.2253    0.0000 C   0  0  0  0  0  0  0  0  0  0  0  0
   -1.2991   -7.4753    0.0000 C   0  0  0  0  0  0  0  0  0  0  0  0
   -1.2991   -8.9753    0.0000 C   0  0  0  0  0  0  0  0  0  0  0  0
   -2.5980   -6.7253    0.0000 C   0  0  0  0  0  0  0  0  0  0  0  0
   -2.5980   -9.7253    0.0000 C   0  0  0  0  0  0  0  0  0  0  0  0
   -3.8971   -7.4753    0.0000 C   0  0  0  0  0  0  0  0  0  0  0  0
   -3.8971   -8.9753    0.0000 C   0  0  0  0  0  0  0  0  0  0  0  0
   -2.5980  -11.2253    0.0000 C   0  0  0  0  0  0  0  0  0  0  0  0
   -5.1962   -6.7253    0.0000 C   0  0  0  0  0  0  0  0  0  0  0  0
  1 14  1  0  0  0  0
  2 14  1  0  0  0  0
  3 14  1  0  0  0  0
  4 15  2  0  0  0  0
  5 24  2  0  0  0  0
  6 15  1  0  0  0  0
  6 19  1  0  0  0  0
  7 20  1  0  0  0  0
  7 24  1  0  0  0  0
  8 24  1  0  0  0  0
  8 25  1  0  0  0  0
  9 10  1  0  0  0  0
  9 12  1  0  0  0  0
  9 17  2  0  0  0  0
 10 11  1  0  0  0  0
 10 18  2  0  0  0  0
 11 13  2  0  0  0  0
 11 19  1  0  0  0  0
 12 14  1  0  0  0  0
 12 16  2  0  0  0  0
 13 15  1  0  0  0  0
 13 21  1  0  0  0  0
 16 20  1  0  0  0  0
 17 22  1  0  0  0  0
 18 23  1  0  0  0  0
 20 22  2  0  0  0  0
 21 23  2  0  0  0  0
 25 26  2  0  0  0  0
 25 27  1  0  0  0  0
 26 28  1  0  0  0  0
 27 29  2  0  0  0  0
 28 30  2  0  0  0  0
 28 31  1  0  0  0  0
 29 30  1  0  0  0  0
 29 32  1  0  0  0  0
M  END
> <Value>
5.899998417198648

> <Relation>
<

> <SourceURI>
mol:CHEMBL1971021

$$$$

Generated by Molecular Materials Informatics

 32 35  0  0  0  0  0  0  0  0999 V2000
   16.2615   -0.1917    0.0000 F   0  0  0  0  0  0  0  0  0  0  0  0
   14.2125    0.3572    0.0000 F   0  0  0  0  0  0  0  0  0  0  0  0
   15.7124   -2.2407    0.0000 F   0  0  0  0  0  0  0  0  0  0  0  0
    4.5704   -0.9417    0.0000 O   0  0  0  0  0  0  0  0  0  0  0  0
   13.6634   -1.6916    0.0000 O   0  0  0  0  0  0  0  0  0  0  0  0
   -4.6501    1.0217    0.0000 N   0  0  0  0  0  0  0  0  0  0  0  0
   -5.5317   -0.1917    0.0000 N   0  0  0  0  0  0  0  0  0  0  0  0
    1.9725   -3.9416    0.0000 N   0  0  0  0  0  0  0  0  0  0  0  0
    7.1685    0.5583    0.0000 N   0  0  0  0  0  0  0  0  0  0  0  0
   -3.2236   -0.9417    0.0000 C   0  0  0  0  0  0  0  0  0  0  0  0
   -3.2236    0.5583    0.0000 C   0  0  0  0  0  0  0  0  0  0  0  0
   -0.6255   -0.9417    0.0000 C   0  0  0  0  0  0  0  0  0  0  0  0
   -4.6501   -1.4053    0.0000 C   0  0  0  0  0  0  0  0  0  0  0  0
   -1.9245   -1.6916    0.0000 C   0  0  0  0  0  0  0  0  0  0  0  0
    0.6734   -1.6916    0.0000 C   0  0  0  0  0  0  0  0  0  0  0  0
   -1.9245    1.3083    0.0000 C   0  0  0  0  0  0  0  0  0  0  0  0
   -0.6255    0.5583    0.0000 C   0  0  0  0  0  0  0  0  0  0  0  0
    1.9725   -0.9417    0.0000 C   0  0  0  0  0  0  0  0  0  0  0  0
    3.2715   -1.6916    0.0000 C   0  0  0  0  0  0  0  0  0  0  0  0
    0.6734   -3.1916    0.0000 C   0  0  0  0  0  0  0  0  0  0  0  0
   -5.1135   -2.8318    0.0000 C   0  0  0  0  0  0  0  0  0  0  0  0
    3.2715   -3.1916    0.0000 C   0  0  0  0  0  0  0  0  0  0  0  0
   12.3645   -0.9417    0.0000 C   0  0  0  0  0  0  0  0  0  0  0  0
    9.7664   -0.9417    0.0000 C   0  0  0  0  0  0  0  0  0  0  0  0
   11.0655   -1.6916    0.0000 C   0  0  0  0  0  0  0  0  0  0  0  0
   14.9624   -0.9417    0.0000 C   0  0  0  0  0  0  0  0  0  0  0  0
    7.1685   -0.9417    0.0000 C   0  0  0  0  0  0  0  0  0  0  0  0
    8.4675   -1.6916    0.0000 C   0  0  0  0  0  0  0  0  0  0  0  0
    5.8694   -1.6916    0.0000 C   0  0  0  0  0  0  0  0  0  0  0  0
   12.3645    0.5583    0.0000 C   0  0  0  0  0  0  0  0  0  0  0  0
    9.7664    0.5583    0.0000 C   0  0  0  0  0  0  0  0  0  0  0  0
   11.0655    1.3083    0.0000 C   0  0  0  0  0  0  0  0  0  0  0  0
  1 26  1  0  0  0  0
  2 26  1  0  0  0  0
  3 26  1  0  0  0  0
  4 19  1  0  0  0  0
  4 29  1  0  0  0  0
  5 23  1  0  0  0  0
  5 26  1  0  0  0  0
  6  7  1  0  0  0  0
  6 11  1  0  0  0  0
  7 13  2  0  0  0  0
  8 20  1  0  0  0  0
  8 22  2  0  0  0  0
  9 27  1  0  0  0  0
 10 11  1  0  0  0  0
 10 13  1  0  0  0  0
 10 14  2  0  0  0  0
 11 16  2  0  0  0  0
 12 14  1  0  0  0  0
 12 15  1  0  0  0  0
 12 17  2  0  0  0  0
 13 21  1  0  0  0  0
 15 18  1  0  0  0  0
 15 20  2  0  0  0  0
 16 17  1  0  0  0  0
 18 19  2  0  0  0  0
 19 22  1  0  0  0  0
 23 25  2  0  0  0  0
 23 30  1  0  0  0  0
 24 25  1  0  0  0  0
 24 28  1  0  0  0  0
 24 31  2  0  0  0  0
 27 28  1  0  0  0  0
 27 29  1  0  0  0  0
 30 32  2  0  0  0  0
 31 32  1  0  0  0  0
M  END
> <Value>
6.599997654072044

> <Relation>
=

> <SourceURI>
mol:CHEMBL1965836

$$$$

Generated by Molecular Materials Informatics

 29 33  0  0  0  0  0  0  0  0999 V2000
    5.1963    6.6518    0.0000 F   0  0  0  0  0  0  0  0  0  0  0  0
    4.9525   -0.3318    0.0000 N   0  0  0  0  0  0  0  0  0  0  0  0
    2.7354   -1.3189    0.0000 N   0  0  0  0  0  0  0  0  0  0  0  0
    4.2025   -1.6309    0.0000 N   0  0  0  0  0  0  0  0  0  0  0  0
   -2.7452    2.8864    0.0000 N   0  0  0  0  0  0  0  0  0  0  0  0
   -3.6268    1.6727    0.0000 N   0  0  0  0  0  0  0  0  0  0  0  0
   -3.2086   -0.9673    0.0000 N   0  0  0  0  0  0  0  0  0  0  0  0
    3.9488    0.7829    0.0000 C   0  0  0  0  0  0  0  0  0  0  0  0
    2.5785    0.1727    0.0000 C   0  0  0  0  0  0  0  0  0  0  0  0
    1.2796    0.9227    0.0000 C   0  0  0  0  0  0  0  0  0  0  0  0
   -1.3186    0.9227    0.0000 C   0  0  0  0  0  0  0  0  0  0  0  0
    4.2607    2.2502    0.0000 C   0  0  0  0  0  0  0  0  0  0  0  0
   -1.3186    2.4227    0.0000 C   0  0  0  0  0  0  0  0  0  0  0  0
   -0.0195    0.1727    0.0000 C   0  0  0  0  0  0  0  0  0  0  0  0
    1.2796    2.4227    0.0000 C   0  0  0  0  0  0  0  0  0  0  0  0
   -2.7452    0.4593    0.0000 C   0  0  0  0  0  0  0  0  0  0  0  0
   -0.0195    3.1727    0.0000 C   0  0  0  0  0  0  0  0  0  0  0  0
    6.4443   -0.1751    0.0000 C   0  0  0  0  0  0  0  0  0  0  0  0
    3.1459    3.2538    0.0000 C   0  0  0  0  0  0  0  0  0  0  0  0
    5.6874    2.7137    0.0000 C   0  0  0  0  0  0  0  0  0  0  0  0
    7.3259   -1.3885    0.0000 C   0  0  0  0  0  0  0  0  0  0  0  0
    3.4579    4.7211    0.0000 C   0  0  0  0  0  0  0  0  0  0  0  0
    5.9992    4.1809    0.0000 C   0  0  0  0  0  0  0  0  0  0  0  0
    4.8845    5.1846    0.0000 C   0  0  0  0  0  0  0  0  0  0  0  0
    8.8178   -1.2318    0.0000 C   0  0  0  0  0  0  0  0  0  0  0  0
    6.7159   -2.7589    0.0000 C   0  0  0  0  0  0  0  0  0  0  0  0
    9.6994   -2.4452    0.0000 C   0  0  0  0  0  0  0  0  0  0  0  0
    7.5976   -3.9723    0.0000 C   0  0  0  0  0  0  0  0  0  0  0  0
    9.0894   -3.8156    0.0000 C   0  0  0  0  0  0  0  0  0  0  0  0
  1 24  1  0  0  0  0
  2  4  1  0  0  0  0
  2  8  1  0  0  0  0
  2 18  1  0  0  0  0
  3  4  2  0  0  0  0
  3  9  1  0  0  0  0
  5  6  1  0  0  0  0
  5 13  1  0  0  0  0
  6 16  2  0  0  0  0
  7 16  1  0  0  0  0
  8  9  2  0  0  0  0
  8 12  1  0  0  0  0
  9 10  1  0  0  0  0
 10 14  1  0  0  0  0
 10 15  2  0  0  0  0
 11 13  1  0  0  0  0
 11 14  2  0  0  0  0
 11 16  1  0  0  0  0
 12 19  2  0  0  0  0
 12 20  1  0  0  0  0
 13 17  2  0  0  0  0
 15 17  1  0  0  0  0
 18 21  1  0  0  0  0
 19 22  1  0  0  0  0
 20 23  2  0  0  0  0
 21 25  2  0  0  0  0
 21 26  1  0  0  0  0
 22 24  2  0  0  0  0
 23 24  1  0  0  0  0
 25 27  1  0  0  0  0
 26 28  2  0  0  0  0
 27 29  2  0  0  0  0
 28 29  1  0  0  0  0
M  END
> <Value>
6.799998134593398

> <Relation>
=

> <SourceURI>
mol:CHEMBL1986499

$$$$

Generated by Molecular Materials Informatics

 22 24  0  0  0  0  0  0  0  0999 V2000
    2.7404   -1.2381    0.0000 S   0  0  0  0  0  0  0  0  0  0  0  0
   -0.1047   -3.8783    0.0000 O   0  0  0  0  0  0  0  0  0  0  0  0
    3.7019   -9.0459    0.0000 O   0  0  0  0  0  0  0  0  0  0  0  0
    0.3135   -1.2381    0.0000 N   0  0  0  0  0  0  0  0  0  0  0  0
    1.5270    1.1435    0.0000 N   0  0  0  0  0  0  0  0  0  0  0  0
    2.2770   -2.6648    0.0000 C   0  0  0  0  0  0  0  0  0  0  0  0
    1.5270   -0.3565    0.0000 C   0  0  0  0  0  0  0  0  0  0  0  0
    0.7770   -2.6648    0.0000 C   0  0  0  0  0  0  0  0  0  0  0  0
    3.1586   -3.8783    0.0000 C   0  0  0  0  0  0  0  0  0  0  0  0
    2.5486   -5.2487    0.0000 C   0  0  0  0  0  0  0  0  0  0  0  0
    2.8261    1.8935    0.0000 C   0  0  0  0  0  0  0  0  0  0  0  0
    3.4302   -6.4621    0.0000 C   0  0  0  0  0  0  0  0  0  0  0  0
    2.8201   -7.8325    0.0000 C   0  0  0  0  0  0  0  0  0  0  0  0
    1.0568   -5.4054    0.0000 C   0  0  0  0  0  0  0  0  0  0  0  0
    2.8261    3.3935    0.0000 C   0  0  0  0  0  0  0  0  0  0  0  0
    4.1250    1.1435    0.0000 C   0  0  0  0  0  0  0  0  0  0  0  0
    1.3284   -7.9892    0.0000 C   0  0  0  0  0  0  0  0  0  0  0  0
    0.4466   -6.7757    0.0000 C   0  0  0  0  0  0  0  0  0  0  0  0
    4.1250    4.1435    0.0000 C   0  0  0  0  0  0  0  0  0  0  0  0
    5.4241    1.8935    0.0000 C   0  0  0  0  0  0  0  0  0  0  0  0
    5.4241    3.3935    0.0000 C   0  0  0  0  0  0  0  0  0  0  0  0
    5.1935   -8.8892    0.0000 C   0  0  0  0  0  0  0  0  0  0  0  0
  1  6  1  0  0  0  0
  1  7  1  0  0  0  0
  2  8  2  0  0  0  0
  3 13  1  0  0  0  0
  3 22  1  0  0  0  0
  4  7  1  0  0  0  0
  4  8  1  0  0  0  0
  5  7  2  0  0  0  0
  5 11  1  0  0  0  0
  6  8  1  0  0  0  0
  6  9  2  0  0  0  0
  9 10  1  0  0  0  0
 10 12  2  0  0  0  0
 10 14  1  0  0  0  0
 11 15  2  0  0  0  0
 11 16  1  0  0  0  0
 12 13  1  0  0  0  0
 13 17  2  0  0  0  0
 14 18  2  0  0  0  0
 15 19  1  0  0  0  0
 16 20  2  0  0  0  0
 17 18  1  0  0  0  0
 19 21  2  0  0  0  0
 20 21  1  0  0  0  0
M  END
> <Value>
6.599997654072044

> <Relation>
=

> <SourceURI>
mol:CHEMBL1972937

$$$$

Generated by Molecular Materials Informatics

 23 26  0  0  0  0  0  0  0  0999 V2000
   -3.0574  -20.4423    0.0000 C   0  0  0  0  0  0  0  0  0  0  0  0
   -3.0574  -21.9423    0.0000 C   0  0  0  0  0  0  0  0  0  0  0  0
   -1.7629  -22.6847    0.0000 N   0  0  0  0  0  0  0  0  0  0  0  0
   -1.7629  -19.6847    0.0000 C   0  0  0  0  0  0  0  0  0  0  0  0
   -0.4684  -20.4423    0.0000 C   0  0  0  0  0  0  0  0  0  0  0  0
   -0.4684  -21.9441    0.0000 N   0  0  0  0  0  0  0  0  0  0  0  0
    0.9600  -22.4083    0.0000 C   0  0  0  0  0  0  0  0  0  0  0  0
    1.8429  -21.1932    0.0000 N   0  0  0  0  0  0  0  0  0  0  0  0
    0.9600  -19.9783    0.0000 N   0  0  0  0  0  0  0  0  0  0  0  0
    1.6965  -23.7148    0.0000 C   0  0  0  0  0  0  0  0  0  0  0  0
    0.9273  -24.9976    0.0000 C   0  0  0  0  0  0  0  0  0  0  0  0
    1.6620  -26.3037    0.0000 C   0  0  0  0  0  0  0  0  0  0  0  0
    3.1634  -26.3208    0.0000 C   0  0  0  0  0  0  0  0  0  0  0  0
    3.9273  -25.0208    0.0000 C   0  0  0  0  0  0  0  0  0  0  0  0
    3.1883  -23.7199    0.0000 C   0  0  0  0  0  0  0  0  0  0  0  0
   -4.3554  -22.6941    0.0000 N   0  0  0  0  0  0  0  0  0  0  0  0
   -5.6556  -21.9459    0.0000 C   0  0  0  0  0  0  0  0  0  0  0  0
   -6.4151  -20.6434    0.0000 C   0  0  0  0  0  0  0  0  0  0  0  0
   -7.1631  -21.9434    0.0000 C   0  0  0  0  0  0  0  0  0  0  0  0
    3.9011  -27.6268    0.0000 C   0  0  0  0  0  0  0  0  0  0  0  0
    4.6394  -28.9195    0.0000 F   0  0  0  0  0  0  0  0  0  0  0  0
    2.5967  -28.3677    0.0000 F   0  0  0  0  0  0  0  0  0  0  0  0
    5.2111  -26.8961    0.0000 F   0  0  0  0  0  0  0  0  0  0  0  0
 10 11  2  0  0  0  0
 11 12  1  0  0  0  0
  1  2  1  0  0  0  0
 12 13  2  0  0  0  0
  1  4  2  0  0  0  0
 13 14  1  0  0  0  0
  2  3  2  0  0  0  0
 14 15  2  0  0  0  0
 15 10  1  0  0  0  0
  3  6  1  0  0  0  0
  2 16  1  0  0  0  0
  6  7  1  0  0  0  0
 16 17  1  0  0  0  0
 18 17  1  0  0  0  0
 19 18  1  0  0  0  0
 17 19  1  0  0  0  0
  7  8  2  0  0  0  0
  8  9  1  0  0  0  0
  9  5  2  0  0  0  0
 13 20  1  0  0  0  0
  5  4  1  0  0  0  0
 20 21  1  0  0  0  0
  7 10  1  0  0  0  0
 20 22  1  0  0  0  0
  5  6  1  0  0  0  0
 20 23  1  0  0  0  0
M  END
> <Value>
5.899998417198648

> <Relation>
<

> <SourceURI>
mol:CHEMBL451964

$$$$

Generated by Molecular Materials Informatics

 14 15  0  0  0  0  0  0  0  0999 V2000
   -1.4105    1.7626    0.0000 S   0  0  0  0  0  0  0  0  0  0  0  0
    0.8550    3.6968    0.0000 O   0  0  0  0  0  0  0  0  0  0  0  0
   -0.8703   -3.2058    0.0000 O   0  0  0  0  0  0  0  0  0  0  0  0
   -3.3413   -2.4029    0.0000 O   0  0  0  0  0  0  0  0  0  0  0  0
    1.1888   -1.1362    0.0000 N   0  0  0  0  0  0  0  0  0  0  0  0
    2.6512    1.9006    0.0000 N   0  0  0  0  0  0  0  0  0  0  0  0
    0.0160   -0.2009    0.0000 C   0  0  0  0  0  0  0  0  0  0  0  0
    0.0160    1.2991    0.0000 C   0  0  0  0  0  0  0  0  0  0  0  0
   -1.4105   -0.6643    0.0000 C   0  0  0  0  0  0  0  0  0  0  0  0
    1.1888    2.2344    0.0000 C   0  0  0  0  0  0  0  0  0  0  0  0
   -2.2922    0.5491    0.0000 C   0  0  0  0  0  0  0  0  0  0  0  0
   -1.8742   -2.0911    0.0000 C   0  0  0  0  0  0  0  0  0  0  0  0
    2.6512   -0.8023    0.0000 C   0  0  0  0  0  0  0  0  0  0  0  0
    3.3021    0.5491    0.0000 C   0  0  0  0  0  0  0  0  0  0  0  0
  1  8  1  0  0  0  0
  1 11  1  0  0  0  0
  2 10  2  0  0  0  0
  3 12  2  0  0  0  0
  4 12  1  0  0  0  0
  5  7  1  0  0  0  0
  5 13  1  0  0  0  0
  6 10  1  0  0  0  0
  6 14  1  0  0  0  0
  7  8  2  0  0  0  0
  7  9  1  0  0  0  0
  8 10  1  0  0  0  0
  9 11  2  0  0  0  0
  9 12  1  0  0  0  0
 13 14  1  0  0  0  0
M  END
> <Value>
4.600000074606178

> <Relation>
=

> <SourceURI>
mol:CHEMBL1974875

$$$$

Generated by Molecular Materials Informatics

 27 30  0  0  0  0  0  0  0  0999 V2000
    4.8785    3.9333    0.0000 O   0  0  0  0  0  0  0  0  0  0  0  0
   -0.4453   -4.7803    0.0000 N   0  0  0  0  0  0  0  0  0  0  0  0
   -1.3270   -3.5666    0.0000 N   0  0  0  0  0  0  0  0  0  0  0  0
   -0.9088   -0.9266    0.0000 N   0  0  0  0  0  0  0  0  0  0  0  0
    3.5794    6.1833    0.0000 N   0  0  0  0  0  0  0  0  0  0  0  0
    0.9812   -2.8166    0.0000 C   0  0  0  0  0  0  0  0  0  0  0  0
    2.2803   -2.0666    0.0000 C   0  0  0  0  0  0  0  0  0  0  0  0
    0.9812   -4.3166    0.0000 C   0  0  0  0  0  0  0  0  0  0  0  0
   -0.4453   -2.3532    0.0000 C   0  0  0  0  0  0  0  0  0  0  0  0
    2.2803   -0.5666    0.0000 C   0  0  0  0  0  0  0  0  0  0  0  0
    3.5794   -2.8166    0.0000 C   0  0  0  0  0  0  0  0  0  0  0  0
    2.2803   -5.0666    0.0000 C   0  0  0  0  0  0  0  0  0  0  0  0
    3.5794   -4.3166    0.0000 C   0  0  0  0  0  0  0  0  0  0  0  0
    0.9812    0.1834    0.0000 C   0  0  0  0  0  0  0  0  0  0  0  0
    3.5794    0.1834    0.0000 C   0  0  0  0  0  0  0  0  0  0  0  0
    2.2803    2.4334    0.0000 C   0  0  0  0  0  0  0  0  0  0  0  0
    0.9812    1.6834    0.0000 C   0  0  0  0  0  0  0  0  0  0  0  0
    3.5794    1.6834    0.0000 C   0  0  0  0  0  0  0  0  0  0  0  0
    2.2803    3.9333    0.0000 C   0  0  0  0  0  0  0  0  0  0  0  0
    3.5794    4.6833    0.0000 C   0  0  0  0  0  0  0  0  0  0  0  0
    4.8785    6.9333    0.0000 C   0  0  0  0  0  0  0  0  0  0  0  0
    4.8785    8.4333    0.0000 C   0  0  0  0  0  0  0  0  0  0  0  0
    6.1774    9.1833    0.0000 C   0  0  0  0  0  0  0  0  0  0  0  0
    6.1774    6.1833    0.0000 C   0  0  0  0  0  0  0  0  0  0  0  0
    7.4765    8.4333    0.0000 C   0  0  0  0  0  0  0  0  0  0  0  0
    7.4765    6.9333    0.0000 C   0  0  0  0  0  0  0  0  0  0  0  0
    6.1774   10.6833    0.0000 C   0  0  0  0  0  0  0  0  0  0  0  0
  1 20  2  0  0  0  0
  2  3  1  0  0  0  0
  2  8  1  0  0  0  0
  3  9  2  0  0  0  0
  4  9  1  0  0  0  0
  5 20  1  0  0  0  0
  5 21  1  0  0  0  0
  6  7  1  0  0  0  0
  6  8  2  0  0  0  0
  6  9  1  0  0  0  0
  7 10  1  0  0  0  0
  7 11  2  0  0  0  0
  8 12  1  0  0  0  0
 10 14  2  0  0  0  0
 10 15  1  0  0  0  0
 11 13  1  0  0  0  0
 12 13  2  0  0  0  0
 14 17  1  0  0  0  0
 15 18  2  0  0  0  0
 16 17  2  0  0  0  0
 16 18  1  0  0  0  0
 16 19  1  0  0  0  0
 19 20  1  0  0  0  0
 21 22  2  0  0  0  0
 21 24  1  0  0  0  0
 22 23  1  0  0  0  0
 23 25  2  0  0  0  0
 23 27  1  0  0  0  0
 24 26  2  0  0  0  0
 25 26  1  0  0  0  0
M  END
> <Value>
5.899998417198648

> <Relation>
<

> <SourceURI>
mol:CHEMBL1964307

$$$$

Generated by Molecular Materials Informatics

 19 21  0  0  0  0  0  0  0  0999 V2000
    0.1300   -5.0625    0.0000 O   0  0  0  0  0  0  0  0  0  0  0  0
    0.1300   -0.5625    0.0000 N   0  0  0  0  0  0  0  0  0  0  0  0
   -2.4682   -0.5625    0.0000 N   0  0  0  0  0  0  0  0  0  0  0  0
   -1.1691   -2.8125    0.0000 C   0  0  0  0  0  0  0  0  0  0  0  0
    1.4289   -2.8125    0.0000 C   0  0  0  0  0  0  0  0  0  0  0  0
    0.1300   -3.5625    0.0000 C   0  0  0  0  0  0  0  0  0  0  0  0
    1.4289   -1.3125    0.0000 C   0  0  0  0  0  0  0  0  0  0  0  0
   -1.1691   -1.3125    0.0000 C   0  0  0  0  0  0  0  0  0  0  0  0
   -2.4682   -3.5625    0.0000 C   0  0  0  0  0  0  0  0  0  0  0  0
    2.7279   -0.5625    0.0000 C   0  0  0  0  0  0  0  0  0  0  0  0
    2.7279   -3.5625    0.0000 C   0  0  0  0  0  0  0  0  0  0  0  0
    4.0270   -1.3125    0.0000 C   0  0  0  0  0  0  0  0  0  0  0  0
    4.0270   -2.8125    0.0000 C   0  0  0  0  0  0  0  0  0  0  0  0
   -3.7671   -2.8125    0.0000 C   0  0  0  0  0  0  0  0  0  0  0  0
   -3.7671   -1.3125    0.0000 C   0  0  0  0  0  0  0  0  0  0  0  0
    5.3261   -0.5625    0.0000 C   0  0  0  0  0  0  0  0  0  0  0  0
   -2.4682   -5.0625    0.0000 C   0  0  0  0  0  0  0  0  0  0  0  0
    5.3261    0.9375    0.0000 C   0  0  0  0  0  0  0  0  0  0  0  0
    6.6250   -1.3125    0.0000 C   0  0  0  0  0  0  0  0  0  0  0  0
  1  6  2  0  0  0  0
  2  7  1  0  0  0  0
  2  8  1  0  0  0  0
  3  8  2  0  0  0  0
  3 15  1  0  0  0  0
  4  6  1  0  0  0  0
  4  8  1  0  0  0  0
  4  9  2  0  0  0  0
  5  6  1  0  0  0  0
  5  7  1  0  0  0  0
  5 11  2  0  0  0  0
  7 10  2  0  0  0  0
  9 14  1  0  0  0  0
  9 17  1  0  0  0  0
 10 12  1  0  0  0  0
 11 13  1  0  0  0  0
 12 13  2  0  0  0  0
 12 16  1  0  0  0  0
 14 15  2  0  0  0  0
 16 18  1  0  0  0  0
 16 19  1  0  0  0  0
M  END
> <Value>
5.800000874803203

> <Relation>
=

> <SourceURI>
mol:CHEMBL1989471

$$$$

Generated by Molecular Materials Informatics

 21 24  0  0  0  0  0  0  0  0999 V2000
    2.7765   -1.7446    0.0000 S   0  0  0  0  0  0  0  0  0  0  0  0
   -6.9582   -0.5312    0.0000 F   0  0  0  0  0  0  0  0  0  0  0  0
    1.3500    0.2188    0.0000 N   0  0  0  0  0  0  0  0  0  0  0  0
   -0.0765   -1.7446    0.0000 N   0  0  0  0  0  0  0  0  0  0  0  0
   -1.4671    4.9621    0.0000 N   0  0  0  0  0  0  0  0  0  0  0  0
   -0.0765    0.6823    0.0000 C   0  0  0  0  0  0  0  0  0  0  0  0
   -0.9582   -0.5312    0.0000 C   0  0  0  0  0  0  0  0  0  0  0  0
    1.3500   -1.2812    0.0000 C   0  0  0  0  0  0  0  0  0  0  0  0
   -0.5402    2.1090    0.0000 C   0  0  0  0  0  0  0  0  0  0  0  0
   -2.4582   -0.5312    0.0000 C   0  0  0  0  0  0  0  0  0  0  0  0
    2.7765    0.6823    0.0000 C   0  0  0  0  0  0  0  0  0  0  0  0
    3.6582   -0.5312    0.0000 C   0  0  0  0  0  0  0  0  0  0  0  0
    0.4636    3.2237    0.0000 C   0  0  0  0  0  0  0  0  0  0  0  0
   -2.0073    2.4208    0.0000 C   0  0  0  0  0  0  0  0  0  0  0  0
   -3.2082   -1.8303    0.0000 C   0  0  0  0  0  0  0  0  0  0  0  0
   -3.2082    0.7679    0.0000 C   0  0  0  0  0  0  0  0  0  0  0  0
   -4.7082   -1.8303    0.0000 C   0  0  0  0  0  0  0  0  0  0  0  0
   -4.7082    0.7679    0.0000 C   0  0  0  0  0  0  0  0  0  0  0  0
   -5.4582   -0.5312    0.0000 C   0  0  0  0  0  0  0  0  0  0  0  0
    0.0000    4.6503    0.0000 C   0  0  0  0  0  0  0  0  0  0  0  0
   -2.4709    3.8474    0.0000 C   0  0  0  0  0  0  0  0  0  0  0  0
  1  8  1  0  0  0  0
  1 12  1  0  0  0  0
  2 19  1  0  0  0  0
  3  6  1  0  0  0  0
  3  8  1  0  0  0  0
  3 11  1  0  0  0  0
  4  7  1  0  0  0  0
  4  8  2  0  0  0  0
  5 20  2  0  0  0  0
  5 21  1  0  0  0  0
  6  7  2  0  0  0  0
  6  9  1  0  0  0  0
  7 10  1  0  0  0  0
  9 13  2  0  0  0  0
  9 14  1  0  0  0  0
 10 15  2  0  0  0  0
 10 16  1  0  0  0  0
 11 12  2  0  0  0  0
 13 20  1  0  0  0  0
 14 21  2  0  0  0  0
 15 17  1  0  0  0  0
 16 18  2  0  0  0  0
 17 19  2  0  0  0  0
 18 19  1  0  0  0  0
M  END
> <Value>
5.899998417198648

> <Relation>
<

> <SourceURI>
mol:CHEMBL2000508

$$$$

Generated by Molecular Materials Informatics

 16 18  0  0  0  0  0  0  0  0999 V2000
    2.8743   -1.2332    0.0000 C   0  0  0  0  0  0  0  0  0  0  0  0
    3.8780   -0.1185    0.0000 N   0  0  0  0  0  0  0  0  0  0  0  0
    3.3378   -2.6597    0.0000 O   0  0  0  0  0  0  0  0  0  0  0  0
    0.1935   -1.8030    0.0000 S   0  0  0  0  0  0  0  0  0  0  0  0
   -2.9507   -2.6597    0.0000 Cl  0  0  0  0  0  0  0  0  0  0  0  0
    3.4145    1.3083    0.0000 C   0  0  0  0  0  0  0  0  0  0  0  0
    1.9473    1.6201    0.0000 N   0  0  0  0  0  0  0  0  0  0  0  0
   -1.0965    3.0466    0.0000 Cl  0  0  0  0  0  0  0  0  0  0  0  0
    0.9435    0.5054    0.0000 C   0  0  0  0  0  0  0  0  0  0  0  0
    1.4071   -0.9212    0.0000 C   0  0  0  0  0  0  0  0  0  0  0  0
   -1.0200   -0.9212    0.0000 C   0  0  0  0  0  0  0  0  0  0  0  0
   -2.4872   -1.2332    0.0000 C   0  0  0  0  0  0  0  0  0  0  0  0
   -3.4909   -0.1185    0.0000 C   0  0  0  0  0  0  0  0  0  0  0  0
   -3.0274    1.3083    0.0000 C   0  0  0  0  0  0  0  0  0  0  0  0
   -1.5602    1.6201    0.0000 C   0  0  0  0  0  0  0  0  0  0  0  0
   -0.5565    0.5054    0.0000 C   0  0  0  0  0  0  0  0  0  0  0  0
  1  3  2  0  0  0  0
  1 10  1  0  0  0  0
  1  2  1  0  0  0  0
  6  2  1  0  0  0  0
 10  4  1  0  0  0  0
 11  4  1  0  0  0  0
 12  5  1  0  0  0  0
  6  7  2  0  0  0  0
  9  7  1  0  0  0  0
 15  8  1  0  0  0  0
  9 10  2  0  0  0  0
 16  9  1  0  0  0  0
 11 12  1  0  0  0  0
 16 11  2  0  0  0  0
 12 13  2  0  0  0  0
 13 14  1  0  0  0  0
 14 15  2  0  0  0  0
 16 15  1  0  0  0  0
M  END
> <Value>
6.799998134593398

> <Relation>
=

> <SourceURI>
mol:CHEMBL583144

$$$$

Generated by Molecular Materials Informatics

 19 21  0  0  0  0  0  0  0  0999 V2000
   -0.3444   -1.0406    0.0000 S   0  0  0  0  0  0  0  0  0  0  0  0
    2.3812    7.6729    0.0000 F   0  0  0  0  0  0  0  0  0  0  0  0
   -3.4761   -1.1260    0.0000 O   0  0  0  0  0  0  0  0  0  0  0  0
    3.6803   -0.5771    0.0000 N   0  0  0  0  0  0  0  0  0  0  0  0
   -3.4761    1.4720    0.0000 N   0  0  0  0  0  0  0  0  0  0  0  0
    1.0821    0.9229    0.0000 C   0  0  0  0  0  0  0  0  0  0  0  0
    1.0821   -0.5771    0.0000 C   0  0  0  0  0  0  0  0  0  0  0  0
    2.3812    1.6729    0.0000 C   0  0  0  0  0  0  0  0  0  0  0  0
   -1.2261    0.1729    0.0000 C   0  0  0  0  0  0  0  0  0  0  0  0
   -0.3444    1.3865    0.0000 C   0  0  0  0  0  0  0  0  0  0  0  0
    2.3812    3.1729    0.0000 C   0  0  0  0  0  0  0  0  0  0  0  0
    2.3812   -1.3271    0.0000 C   0  0  0  0  0  0  0  0  0  0  0  0
    3.6803    0.9229    0.0000 C   0  0  0  0  0  0  0  0  0  0  0  0
   -2.7261    0.1729    0.0000 C   0  0  0  0  0  0  0  0  0  0  0  0
    1.0821    3.9229    0.0000 C   0  0  0  0  0  0  0  0  0  0  0  0
    3.6803    3.9229    0.0000 C   0  0  0  0  0  0  0  0  0  0  0  0
    1.0821    5.4229    0.0000 C   0  0  0  0  0  0  0  0  0  0  0  0
    3.6803    5.4229    0.0000 C   0  0  0  0  0  0  0  0  0  0  0  0
    2.3812    6.1729    0.0000 C   0  0  0  0  0  0  0  0  0  0  0  0
  1  7  1  0  0  0  0
  1  9  1  0  0  0  0
  2 19  1  0  0  0  0
  3 14  2  0  0  0  0
  4 12  1  0  0  0  0
  4 13  2  0  0  0  0
  5 14  1  0  0  0  0
  6  7  1  0  0  0  0
  6  8  2  0  0  0  0
  6 10  1  0  0  0  0
  7 12  2  0  0  0  0
  8 11  1  0  0  0  0
  8 13  1  0  0  0  0
  9 10  2  0  0  0  0
  9 14  1  0  0  0  0
 11 15  2  0  0  0  0
 11 16  1  0  0  0  0
 15 17  1  0  0  0  0
 16 18  2  0  0  0  0
 17 19  2  0  0  0  0
 18 19  1  0  0  0  0
M  END
> <Value>
6.199998172182031

> <Relation>
=

> <SourceURI>
mol:CHEMBL1974310

$$$$

Generated by Molecular Materials Informatics

 25 27  0  0  0  0  0  0  0  0999 V2000
    3.4457   -1.8943    0.0000 S   0  0  0  0  0  0  0  0  0  0  0  0
    5.3557   -4.3777    0.0000 O   0  0  0  0  0  0  0  0  0  0  0  0
    4.6786  -12.2859    0.0000 O   0  0  0  0  0  0  0  0  0  0  0  0
    1.0186   -1.8943    0.0000 N   0  0  0  0  0  0  0  0  0  0  0  0
    3.2537   -5.9048    0.0000 N   0  0  0  0  0  0  0  0  0  0  0  0
    2.2322    3.4874    0.0000 N   0  0  0  0  0  0  0  0  0  0  0  0
    2.9822   -3.3210    0.0000 C   0  0  0  0  0  0  0  0  0  0  0  0
    2.2322   -1.0126    0.0000 C   0  0  0  0  0  0  0  0  0  0  0  0
    1.4822   -3.3210    0.0000 C   0  0  0  0  0  0  0  0  0  0  0  0
    3.8639   -4.5344    0.0000 C   0  0  0  0  0  0  0  0  0  0  0  0
    2.2322    0.4874    0.0000 C   0  0  0  0  0  0  0  0  0  0  0  0
    4.1355   -7.1182    0.0000 C   0  0  0  0  0  0  0  0  0  0  0  0
    3.5253   -8.4886    0.0000 C   0  0  0  0  0  0  0  0  0  0  0  0
    3.5311    1.2374    0.0000 C   0  0  0  0  0  0  0  0  0  0  0  0
    0.9331    1.2374    0.0000 C   0  0  0  0  0  0  0  0  0  0  0  0
    0.6006   -4.5344    0.0000 C   0  0  0  0  0  0  0  0  0  0  0  0
    4.4070   -9.7021    0.0000 C   0  0  0  0  0  0  0  0  0  0  0  0
    3.7970  -11.0724    0.0000 C   0  0  0  0  0  0  0  0  0  0  0  0
    2.0335   -8.6453    0.0000 C   0  0  0  0  0  0  0  0  0  0  0  0
    3.5311    2.7374    0.0000 C   0  0  0  0  0  0  0  0  0  0  0  0
    0.9331    2.7374    0.0000 C   0  0  0  0  0  0  0  0  0  0  0  0
    5.6271   -6.9615    0.0000 C   0  0  0  0  0  0  0  0  0  0  0  0
    2.3051  -11.2292    0.0000 C   0  0  0  0  0  0  0  0  0  0  0  0
    1.4235  -10.0157    0.0000 C   0  0  0  0  0  0  0  0  0  0  0  0
    6.1704  -12.1292    0.0000 C   0  0  0  0  0  0  0  0  0  0  0  0
  1  7  1  0  0  0  0
  1  8  1  0  0  0  0
  2 10  2  0  0  0  0
  3 18  1  0  0  0  0
  3 25  1  0  0  0  0
  4  8  2  0  0  0  0
  4  9  1  0  0  0  0
  5 10  1  0  0  0  0
  5 12  1  0  0  0  0
  6 20  2  0  0  0  0
  6 21  1  0  0  0  0
  7  9  2  0  0  0  0
  7 10  1  0  0  0  0
  8 11  1  0  0  0  0
  9 16  1  0  0  0  0
 11 14  2  0  0  0  0
 11 15  1  0  0  0  0
 12 13  1  0  0  0  0
 12 22  1  0  0  0  0
 13 17  2  0  0  0  0
 13 19  1  0  0  0  0
 14 20  1  0  0  0  0
 15 21  2  0  0  0  0
 17 18  1  0  0  0  0
 18 23  2  0  0  0  0
 19 24  2  0  0  0  0
 23 24  1  0  0  0  0
M  END
> <Value>
5.300000202445418

> <Relation>
<

> <SourceURI>
mol:CHEMBL1978567

$$$$

Generated by Molecular Materials Informatics

 26 28  0  0  0  0  0  0  0  0999 V2000
   -3.8519  -10.2188    0.0000 F   0  0  0  0  0  0  0  0  0  0  0  0
   -2.3519   -8.7188    0.0000 F   0  0  0  0  0  0  0  0  0  0  0  0
   -5.3519   -8.7188    0.0000 F   0  0  0  0  0  0  0  0  0  0  0  0
    5.2414    2.5312    0.0000 O   0  0  0  0  0  0  0  0  0  0  0  0
   -2.5528   -1.9687    0.0000 O   0  0  0  0  0  0  0  0  0  0  0  0
    0.0452   -1.9687    0.0000 N   0  0  0  0  0  0  0  0  0  0  0  0
   -2.5528   -6.4687    0.0000 N   0  0  0  0  0  0  0  0  0  0  0  0
    0.0452    2.5312    0.0000 N   0  0  0  0  0  0  0  0  0  0  0  0
   -1.2539   -4.2188    0.0000 N   0  0  0  0  0  0  0  0  0  0  0  0
    1.3443    0.2812    0.0000 C   0  0  0  0  0  0  0  0  0  0  0  0
    0.0452   -0.4688    0.0000 C   0  0  0  0  0  0  0  0  0  0  0  0
    1.3443    1.7812    0.0000 C   0  0  0  0  0  0  0  0  0  0  0  0
   -3.8519   -7.2188    0.0000 C   0  0  0  0  0  0  0  0  0  0  0  0
   -3.8519   -8.7188    0.0000 C   0  0  0  0  0  0  0  0  0  0  0  0
   -2.5528   -4.9688    0.0000 C   0  0  0  0  0  0  0  0  0  0  0  0
    2.6432   -0.4688    0.0000 C   0  0  0  0  0  0  0  0  0  0  0  0
    2.6432    2.5312    0.0000 C   0  0  0  0  0  0  0  0  0  0  0  0
    3.9423    1.7812    0.0000 C   0  0  0  0  0  0  0  0  0  0  0  0
   -1.2539   -2.7188    0.0000 C   0  0  0  0  0  0  0  0  0  0  0  0
   -1.2539    0.2812    0.0000 C   0  0  0  0  0  0  0  0  0  0  0  0
    3.9423    0.2812    0.0000 C   0  0  0  0  0  0  0  0  0  0  0  0
   -5.1510   -6.4687    0.0000 C   0  0  0  0  0  0  0  0  0  0  0  0
   -1.2539    1.7812    0.0000 C   0  0  0  0  0  0  0  0  0  0  0  0
   -3.8519   -4.2188    0.0000 C   0  0  0  0  0  0  0  0  0  0  0  0
   -5.1510   -4.9688    0.0000 C   0  0  0  0  0  0  0  0  0  0  0  0
    5.2414    4.0312    0.0000 C   0  0  0  0  0  0  0  0  0  0  0  0
  1 14  1  0  0  0  0
  2 14  1  0  0  0  0
  3 14  1  0  0  0  0
  4 18  1  0  0  0  0
  4 26  1  0  0  0  0
  5 19  2  0  0  0  0
  6 11  1  0  0  0  0
  6 19  1  0  0  0  0
  7 13  2  0  0  0  0
  7 15  1  0  0  0  0
  8 12  1  0  0  0  0
  8 23  2  0  0  0  0
  9 15  1  0  0  0  0
  9 19  1  0  0  0  0
 10 11  1  0  0  0  0
 10 12  1  0  0  0  0
 10 16  2  0  0  0  0
 11 20  2  0  0  0  0
 12 17  2  0  0  0  0
 13 14  1  0  0  0  0
 13 22  1  0  0  0  0
 15 24  2  0  0  0  0
 16 21  1  0  0  0  0
 17 18  1  0  0  0  0
 18 21  2  0  0  0  0
 20 23  1  0  0  0  0
 22 25  2  0  0  0  0
 24 25  1  0  0  0  0
M  END
> <Value>
5.899998417198648

> <Relation>
<

> <SourceURI>
mol:CHEMBL1982660

$$$$

Generated by Molecular Materials Informatics

 24 27  0  0  0  0  0  0  0  0999 V2000
    5.8935    5.4000    0.0000 O   0  0  0  0  0  0  0  0  0  0  0  0
   -2.0283   -1.8135    0.0000 N   0  0  0  0  0  0  0  0  0  0  0  0
    0.6974   -2.1000    0.0000 N   0  0  0  0  0  0  0  0  0  0  0  0
    3.2954    5.4000    0.0000 N   0  0  0  0  0  0  0  0  0  0  0  0
   -0.6017    0.1500    0.0000 C   0  0  0  0  0  0  0  0  0  0  0  0
   -2.0283    0.6135    0.0000 C   0  0  0  0  0  0  0  0  0  0  0  0
   -0.6017   -1.3500    0.0000 C   0  0  0  0  0  0  0  0  0  0  0  0
    1.9963    0.1500    0.0000 C   0  0  0  0  0  0  0  0  0  0  0  0
    0.6974    0.9000    0.0000 C   0  0  0  0  0  0  0  0  0  0  0  0
   -2.4919    2.0402    0.0000 C   0  0  0  0  0  0  0  0  0  0  0  0
    3.2954    0.9000    0.0000 C   0  0  0  0  0  0  0  0  0  0  0  0
   -2.9099   -0.6000    0.0000 C   0  0  0  0  0  0  0  0  0  0  0  0
    1.9963   -1.3500    0.0000 C   0  0  0  0  0  0  0  0  0  0  0  0
    3.2954    2.4000    0.0000 C   0  0  0  0  0  0  0  0  0  0  0  0
    4.5944    3.1500    0.0000 C   0  0  0  0  0  0  0  0  0  0  0  0
    4.5944    0.1500    0.0000 C   0  0  0  0  0  0  0  0  0  0  0  0
   -3.9590    2.3520    0.0000 C   0  0  0  0  0  0  0  0  0  0  0  0
   -1.4881    3.1549    0.0000 C   0  0  0  0  0  0  0  0  0  0  0  0
    5.8935    2.4000    0.0000 C   0  0  0  0  0  0  0  0  0  0  0  0
    5.8935    0.9000    0.0000 C   0  0  0  0  0  0  0  0  0  0  0  0
    4.5944    4.6500    0.0000 C   0  0  0  0  0  0  0  0  0  0  0  0
   -4.4226    3.7785    0.0000 C   0  0  0  0  0  0  0  0  0  0  0  0
   -1.9517    4.5815    0.0000 C   0  0  0  0  0  0  0  0  0  0  0  0
   -3.4188    4.8933    0.0000 C   0  0  0  0  0  0  0  0  0  0  0  0
  1 21  2  0  0  0  0
  2  7  1  0  0  0  0
  2 12  1  0  0  0  0
  3  7  2  0  0  0  0
  3 13  1  0  0  0  0
  4 21  1  0  0  0  0
  5  6  1  0  0  0  0
  5  7  1  0  0  0  0
  5  9  2  0  0  0  0
  6 10  1  0  0  0  0
  6 12  2  0  0  0  0
  8  9  1  0  0  0  0
  8 11  1  0  0  0  0
  8 13  2  0  0  0  0
 10 17  2  0  0  0  0
 10 18  1  0  0  0  0
 11 14  2  0  0  0  0
 11 16  1  0  0  0  0
 14 15  1  0  0  0  0
 15 19  2  0  0  0  0
 15 21  1  0  0  0  0
 16 20  2  0  0  0  0
 17 22  1  0  0  0  0
 18 23  2  0  0  0  0
 19 20  1  0  0  0  0
 22 24  2  0  0  0  0
 23 24  1  0  0  0  0
M  END
> <Value>
5.899998417198648

> <Relation>
<

> <SourceURI>
mol:CHEMBL1982957

$$$$

Generated by Molecular Materials Informatics

 17 20  0  0  0  0  0  0  0  0999 V2000
   -0.4745   -3.2625    0.0000 O   0  0  0  0  0  0  0  0  0  0  0  0
   -1.0322    2.7958    0.0000 N   0  0  0  0  0  0  0  0  0  0  0  0
   -2.5322    2.7958    0.0000 N   0  0  0  0  0  0  0  0  0  0  0  0
   -1.7822    0.4875    0.0000 C   0  0  0  0  0  0  0  0  0  0  0  0
   -0.4771    1.2375    0.0000 C   0  0  0  0  0  0  0  0  0  0  0  0
   -1.7822   -1.0125    0.0000 C   0  0  0  0  0  0  0  0  0  0  0  0
    0.8184    0.4875    0.0000 C   0  0  0  0  0  0  0  0  0  0  0  0
    0.8184   -1.0125    0.0000 C   0  0  0  0  0  0  0  0  0  0  0  0
   -3.0776    1.2375    0.0000 C   0  0  0  0  0  0  0  0  0  0  0  0
   -0.4771   -1.7625    0.0000 C   0  0  0  0  0  0  0  0  0  0  0  0
   -3.0776   -1.7625    0.0000 C   0  0  0  0  0  0  0  0  0  0  0  0
   -4.3731    0.4875    0.0000 C   0  0  0  0  0  0  0  0  0  0  0  0
    2.1175    1.2375    0.0000 C   0  0  0  0  0  0  0  0  0  0  0  0
    2.1175   -1.7625    0.0000 C   0  0  0  0  0  0  0  0  0  0  0  0
   -4.3731   -1.0125    0.0000 C   0  0  0  0  0  0  0  0  0  0  0  0
    3.4166    0.4875    0.0000 C   0  0  0  0  0  0  0  0  0  0  0  0
    3.4166   -1.0125    0.0000 C   0  0  0  0  0  0  0  0  0  0  0  0
  1 10  1  0  0  0  0
  2  3  2  0  0  0  0
  2  5  1  0  0  0  0
  3  9  1  0  0  0  0
  4  5  2  0  0  0  0
  4  6  1  0  0  0  0
  4  9  1  0  0  0  0
  5  7  1  0  0  0  0
  6 10  2  0  0  0  0
  6 11  1  0  0  0  0
  7  8  1  0  0  0  0
  7 13  2  0  0  0  0
  8 10  1  0  0  0  0
  8 14  2  0  0  0  0
  9 12  2  0  0  0  0
 11 15  2  0  0  0  0
 12 15  1  0  0  0  0
 13 16  1  0  0  0  0
 14 17  1  0  0  0  0
 16 17  2  0  0  0  0
M  END
> <Value>
6.399996913372259

> <Relation>
=

> <SourceURI>
mol:CHEMBL1725279

$$$$

Generated by Molecular Materials Informatics

 28 30  0  0  0  0  0  0  0  0999 V2000
   -6.0138   -0.5625    0.0000 S   0  0  0  0  0  0  0  0  0  0  0  0
   -9.9108    4.6874    0.0000 F   0  0  0  0  0  0  0  0  0  0  0  0
   -3.6167   -4.3125    0.0000 O   0  0  0  0  0  0  0  0  0  0  0  0
   -0.8177   -2.0625    0.0000 O   0  0  0  0  0  0  0  0  0  0  0  0
   -3.4158   -2.0625    0.0000 N   0  0  0  0  0  0  0  0  0  0  0  0
   -3.4158   -0.5625    0.0000 N   0  0  0  0  0  0  0  0  0  0  0  0
   -4.7147    1.6874    0.0000 N   0  0  0  0  0  0  0  0  0  0  0  0
   -2.1167   -4.3125    0.0000 C   0  0  0  0  0  0  0  0  0  0  0  0
   -2.1167   -5.8124    0.0000 C   0  0  0  0  0  0  0  0  0  0  0  0
   -0.6168   -4.3125    0.0000 C   0  0  0  0  0  0  0  0  0  0  0  0
   -2.1167   -2.8125    0.0000 C   0  0  0  0  0  0  0  0  0  0  0  0
   -0.8177   -6.5624    0.0000 C   0  0  0  0  0  0  0  0  0  0  0  0
    0.1332   -3.0134    0.0000 C   0  0  0  0  0  0  0  0  0  0  0  0
   -3.4158   -6.5624    0.0000 C   0  0  0  0  0  0  0  0  0  0  0  0
    0.1332   -5.6115    0.0000 C   0  0  0  0  0  0  0  0  0  0  0  0
   -0.8177   -8.0624    0.0000 C   0  0  0  0  0  0  0  0  0  0  0  0
    1.6332   -3.0134    0.0000 C   0  0  0  0  0  0  0  0  0  0  0  0
   -3.4158   -8.0624    0.0000 C   0  0  0  0  0  0  0  0  0  0  0  0
    1.6332   -5.6115    0.0000 C   0  0  0  0  0  0  0  0  0  0  0  0
   -4.7147    0.1875    0.0000 C   0  0  0  0  0  0  0  0  0  0  0  0
   -2.1167   -8.8124    0.0000 C   0  0  0  0  0  0  0  0  0  0  0  0
    2.3832   -4.3125    0.0000 C   0  0  0  0  0  0  0  0  0  0  0  0
   -6.0138    2.4374    0.0000 C   0  0  0  0  0  0  0  0  0  0  0  0
   -7.3128    1.6874    0.0000 C   0  0  0  0  0  0  0  0  0  0  0  0
   -6.0138    3.9374    0.0000 C   0  0  0  0  0  0  0  0  0  0  0  0
   -8.6117    3.9374    0.0000 C   0  0  0  0  0  0  0  0  0  0  0  0
   -8.6117    2.4374    0.0000 C   0  0  0  0  0  0  0  0  0  0  0  0
   -7.3128    4.6874    0.0000 C   0  0  0  0  0  0  0  0  0  0  0  0
  1 20  2  0  0  0  0
  2 26  1  0  0  0  0
  3  8  1  0  0  0  0
  4 11  2  0  0  0  0
  5  6  1  0  0  0  0
  5 11  1  0  0  0  0
  6 20  1  0  0  0  0
  7 20  1  0  0  0  0
  7 23  1  0  0  0  0
  8  9  1  0  0  0  0
  8 10  1  0  0  0  0
  8 11  1  0  0  0  0
  9 12  2  0  0  0  0
  9 14  1  0  0  0  0
 10 13  2  0  0  0  0
 10 15  1  0  0  0  0
 12 16  1  0  0  0  0
 13 17  1  0  0  0  0
 14 18  2  0  0  0  0
 15 19  2  0  0  0  0
 16 21  2  0  0  0  0
 17 22  2  0  0  0  0
 18 21  1  0  0  0  0
 19 22  1  0  0  0  0
 23 24  2  0  0  0  0
 23 25  1  0  0  0  0
 24 27  1  0  0  0  0
 25 28  2  0  0  0  0
 26 27  2  0  0  0  0
 26 28  1  0  0  0  0
M  END
> <Value>
6.199998172182031

> <Relation>
=

> <SourceURI>
mol:CHEMBL1975138

$$$$

Generated by Molecular Materials Informatics

 24 27  0  0  0  0  0  0  0  0999 V2000
   -2.4833    3.6836    0.0000 O   0  0  0  0  0  0  0  0  0  0  0  0
    3.7241    2.7700    0.0000 N   0  0  0  0  0  0  0  0  0  0  0  0
    4.9549    1.9124    0.0000 N   0  0  0  0  0  0  0  0  0  0  0  0
    5.7474   -3.2971    0.0000 N   0  0  0  0  0  0  0  0  0  0  0  0
    9.0467   -5.5027    0.0000 N   0  0  0  0  0  0  0  0  0  0  0  0
    3.0198    0.4473    0.0000 C   0  0  0  0  0  0  0  0  0  0  0  0
    2.5281    1.8645    0.0000 C   0  0  0  0  0  0  0  0  0  0  0  0
    1.0285    1.8349    0.0000 C   0  0  0  0  0  0  0  0  0  0  0  0
    0.5932    0.3995    0.0000 C   0  0  0  0  0  0  0  0  0  0  0  0
    4.5194    0.4769    0.0000 C   0  0  0  0  0  0  0  0  0  0  0  0
    1.8240   -0.4582    0.0000 C   0  0  0  0  0  0  0  0  0  0  0  0
    5.4249   -0.7191    0.0000 C   0  0  0  0  0  0  0  0  0  0  0  0
    0.0030    2.9296    0.0000 C   0  0  0  0  0  0  0  0  0  0  0  0
   -0.8677    0.0587    0.0000 C   0  0  0  0  0  0  0  0  0  0  0  0
   -1.4577    2.5889    0.0000 C   0  0  0  0  0  0  0  0  0  0  0  0
   -1.8931    1.1535    0.0000 C   0  0  0  0  0  0  0  0  0  0  0  0
    4.8420   -2.1011    0.0000 C   0  0  0  0  0  0  0  0  0  0  0  0
    6.9132   -0.5329    0.0000 C   0  0  0  0  0  0  0  0  0  0  0  0
   -3.3539    0.8127    0.0000 C   0  0  0  0  0  0  0  0  0  0  0  0
    7.8187   -1.7287    0.0000 C   0  0  0  0  0  0  0  0  0  0  0  0
    7.2358   -3.1109    0.0000 C   0  0  0  0  0  0  0  0  0  0  0  0
    8.1413   -4.3067    0.0000 C   0  0  0  0  0  0  0  0  0  0  0  0
   -3.9441    3.3429    0.0000 C   0  0  0  0  0  0  0  0  0  0  0  0
   -4.8146    0.4720    0.0000 C   0  0  0  0  0  0  0  0  0  0  0  0
  1 15  1  0  0  0  0
  1 23  1  0  0  0  0
  2  3  1  0  0  0  0
  2  7  1  0  0  0  0
  3 10  2  0  0  0  0
  4 17  2  0  0  0  0
  4 21  1  0  0  0  0
  5 22  3  0  0  0  0
  6  7  2  0  0  0  0
  6 10  1  0  0  0  0
  6 11  1  0  0  0  0
  7  8  1  0  0  0  0
  8  9  2  0  0  0  0
  8 13  1  0  0  0  0
  9 11  1  0  0  0  0
  9 14  1  0  0  0  0
 10 12  1  0  0  0  0
 12 17  1  0  0  0  0
 12 18  2  0  0  0  0
 13 15  2  0  0  0  0
 14 16  2  0  0  0  0
 15 16  1  0  0  0  0
 16 19  1  0  0  0  0
 18 20  1  0  0  0  0
 19 24  3  0  0  0  0
 20 21  2  0  0  0  0
 21 22  1  0  0  0  0
M  END
> <Value>
5.899998417198648

> <Relation>
<

> <SourceURI>
mol:CHEMBL1972250

$$$$

Generated by Molecular Materials Informatics

 31 36  0  0  0  0  0  0  0  0999 V2000
    5.5730  -12.6134    0.0000 F   0  0  0  0  0  0  0  0  0  0  0  0
    4.3744   -4.4220    0.0000 F   0  0  0  0  0  0  0  0  0  0  0  0
    4.3528   -9.8729    0.0000 O   0  0  0  0  0  0  0  0  0  0  0  0
   -0.8145  -11.9843    0.0000 O   0  0  0  0  0  0  0  0  0  0  0  0
   -0.1225   -9.4025    0.0000 N   0  0  0  0  0  0  0  0  0  0  0  0
   -0.9492   -4.1356    0.0000 N   0  0  0  0  0  0  0  0  0  0  0  0
   -0.4090   -6.6769    0.0000 N   0  0  0  0  0  0  0  0  0  0  0  0
   -2.4967   -9.9071    0.0000 N   0  0  0  0  0  0  0  0  0  0  0  0
   -2.8799   -5.8740    0.0000 N   0  0  0  0  0  0  0  0  0  0  0  0
   -0.9492   -1.7085    0.0000 N   0  0  0  0  0  0  0  0  0  0  0  0
   -0.8725   -8.1034    0.0000 C   0  0  0  0  0  0  0  0  0  0  0  0
    1.3692   -9.5592    0.0000 C   0  0  0  0  0  0  0  0  0  0  0  0
   -2.3397   -8.4152    0.0000 C   0  0  0  0  0  0  0  0  0  0  0  0
   -1.1263  -10.5172    0.0000 C   0  0  0  0  0  0  0  0  0  0  0  0
   -1.4127   -5.5621    0.0000 C   0  0  0  0  0  0  0  0  0  0  0  0
    1.9793  -10.9296    0.0000 C   0  0  0  0  0  0  0  0  0  0  0  0
    0.4773   -3.6720    0.0000 C   0  0  0  0  0  0  0  0  0  0  0  0
    3.4712  -11.0863    0.0000 C   0  0  0  0  0  0  0  0  0  0  0  0
   -3.3434   -7.3005    0.0000 C   0  0  0  0  0  0  0  0  0  0  0  0
    0.4773   -2.1720    0.0000 C   0  0  0  0  0  0  0  0  0  0  0  0
    2.2510   -8.3458    0.0000 C   0  0  0  0  0  0  0  0  0  0  0  0
   -1.8308   -2.9220    0.0000 C   0  0  0  0  0  0  0  0  0  0  0  0
    1.0977  -12.1431    0.0000 C   0  0  0  0  0  0  0  0  0  0  0  0
    4.0812  -12.4567    0.0000 C   0  0  0  0  0  0  0  0  0  0  0  0
    1.7764   -4.4220    0.0000 C   0  0  0  0  0  0  0  0  0  0  0  0
    3.7426   -8.5025    0.0000 C   0  0  0  0  0  0  0  0  0  0  0  0
    1.7764   -1.4220    0.0000 C   0  0  0  0  0  0  0  0  0  0  0  0
    3.0755   -3.6720    0.0000 C   0  0  0  0  0  0  0  0  0  0  0  0
    3.1995  -13.6701    0.0000 C   0  0  0  0  0  0  0  0  0  0  0  0
    1.7077  -13.5134    0.0000 C   0  0  0  0  0  0  0  0  0  0  0  0
    3.0755   -2.1720    0.0000 C   0  0  0  0  0  0  0  0  0  0  0  0
  1 24  1  0  0  0  0
  2 28  1  0  0  0  0
  3 18  1  0  0  0  0
  3 26  1  0  0  0  0
  4 14  2  0  0  0  0
  5 11  1  0  0  0  0
  5 12  1  0  0  0  0
  5 14  1  0  0  0  0
  6 15  1  0  0  0  0
  6 17  1  0  0  0  0
  6 22  1  0  0  0  0
  7 11  2  0  0  0  0
  7 15  1  0  0  0  0
  8 13  1  0  0  0  0
  8 14  1  0  0  0  0
  9 15  2  0  0  0  0
  9 19  1  0  0  0  0
 10 20  1  0  0  0  0
 10 22  2  0  0  0  0
 11 13  1  0  0  0  0
 12 16  1  0  0  0  0
 12 21  1  0  0  0  0
 13 19  2  0  0  0  0
 16 18  1  0  0  0  0
 16 23  2  0  0  0  0
 17 20  1  0  0  0  0
 17 25  2  0  0  0  0
 18 24  2  0  0  0  0
 20 27  2  0  0  0  0
 21 26  1  0  0  0  0
 23 30  1  0  0  0  0
 24 29  1  0  0  0  0
 25 28  1  0  0  0  0
 27 31  1  0  0  0  0
 28 31  2  0  0  0  0
 29 30  2  0  0  0  0
M  END
> <Value>
5.899998417198648

> <Relation>
<

> <SourceURI>
mol:CHEMBL2000393

$$$$

Generated by Molecular Materials Informatics

 18 20  0  0  0  0  0  0  0  0999 V2000
    1.8581   -1.4666    0.0000 N   0  0  0  0  0  0  0  0  0  0  0  0
    0.4315   -3.4302    0.0000 N   0  0  0  0  0  0  0  0  0  0  0  0
   -0.4501   -2.2166    0.0000 N   0  0  0  0  0  0  0  0  0  0  0  0
   -0.0319    0.4234    0.0000 N   0  0  0  0  0  0  0  0  0  0  0  0
    3.1571   -0.7166    0.0000 C   0  0  0  0  0  0  0  0  0  0  0  0
    1.8581   -2.9666    0.0000 C   0  0  0  0  0  0  0  0  0  0  0  0
    0.4315   -1.0032    0.0000 C   0  0  0  0  0  0  0  0  0  0  0  0
    3.1571    0.7834    0.0000 C   0  0  0  0  0  0  0  0  0  0  0  0
    4.4562   -1.4666    0.0000 C   0  0  0  0  0  0  0  0  0  0  0  0
    3.1571   -3.7166    0.0000 C   0  0  0  0  0  0  0  0  0  0  0  0
    4.4562   -2.9666    0.0000 C   0  0  0  0  0  0  0  0  0  0  0  0
    1.8581    1.5333    0.0000 C   0  0  0  0  0  0  0  0  0  0  0  0
    4.4562    1.5333    0.0000 C   0  0  0  0  0  0  0  0  0  0  0  0
    3.1571    3.7833    0.0000 C   0  0  0  0  0  0  0  0  0  0  0  0
    1.8581    3.0333    0.0000 C   0  0  0  0  0  0  0  0  0  0  0  0
    4.4562    3.0333    0.0000 C   0  0  0  0  0  0  0  0  0  0  0  0
    3.1571    5.2833    0.0000 C   0  0  0  0  0  0  0  0  0  0  0  0
    1.8581    6.0333    0.0000 C   0  0  0  0  0  0  0  0  0  0  0  0
  1  5  1  0  0  0  0
  1  6  1  0  0  0  0
  1  7  1  0  0  0  0
  2  3  1  0  0  0  0
  2  6  2  0  0  0  0
  3  7  2  0  0  0  0
  4  7  1  0  0  0  0
  5  8  1  0  0  0  0
  5  9  2  0  0  0  0
  6 10  1  0  0  0  0
  8 12  2  0  0  0  0
  8 13  1  0  0  0  0
  9 11  1  0  0  0  0
 10 11  2  0  0  0  0
 12 15  1  0  0  0  0
 13 16  2  0  0  0  0
 14 15  2  0  0  0  0
 14 16  1  0  0  0  0
 14 17  1  0  0  0  0
 17 18  2  0  0  0  0
M  END
> <Value>
4.900000142057633

> <Relation>
=

> <SourceURI>
mol:CHEMBL1983573

$$$$

Generated by Molecular Materials Informatics

 29 32  0  0  0  0  0  0  0  0999 V2000
   -1.2011   -5.9503    0.0000 O   0  0  0  0  0  0  0  0  0  0  0  0
    4.5862    4.1899    0.0000 O   0  0  0  0  0  0  0  0  0  0  0  0
   -1.6193   -3.3101    0.0000 N   0  0  0  0  0  0  0  0  0  0  0  0
    1.9880    4.1899    0.0000 N   0  0  0  0  0  0  0  0  0  0  0  0
    3.2871    6.4399    0.0000 N   0  0  0  0  0  0  0  0  0  0  0  0
    0.6889   -2.5601    0.0000 C   0  0  0  0  0  0  0  0  0  0  0  0
    1.9880   -1.8101    0.0000 C   0  0  0  0  0  0  0  0  0  0  0  0
    0.6889   -4.0601    0.0000 C   0  0  0  0  0  0  0  0  0  0  0  0
    1.9880   -0.3101    0.0000 C   0  0  0  0  0  0  0  0  0  0  0  0
   -0.7376   -4.5237    0.0000 C   0  0  0  0  0  0  0  0  0  0  0  0
    0.6889    0.4399    0.0000 C   0  0  0  0  0  0  0  0  0  0  0  0
   -0.7376   -2.0967    0.0000 C   0  0  0  0  0  0  0  0  0  0  0  0
    3.2871   -2.5601    0.0000 C   0  0  0  0  0  0  0  0  0  0  0  0
    1.9880   -4.8101    0.0000 C   0  0  0  0  0  0  0  0  0  0  0  0
    3.2871    0.4399    0.0000 C   0  0  0  0  0  0  0  0  0  0  0  0
    1.9880    2.6899    0.0000 C   0  0  0  0  0  0  0  0  0  0  0  0
    3.2871   -4.0601    0.0000 C   0  0  0  0  0  0  0  0  0  0  0  0
    0.6889    1.9399    0.0000 C   0  0  0  0  0  0  0  0  0  0  0  0
    3.2871    1.9399    0.0000 C   0  0  0  0  0  0  0  0  0  0  0  0
    3.2871    4.9399    0.0000 C   0  0  0  0  0  0  0  0  0  0  0  0
   -0.6100   -0.3101    0.0000 C   0  0  0  0  0  0  0  0  0  0  0  0
    4.5862    7.1899    0.0000 C   0  0  0  0  0  0  0  0  0  0  0  0
    4.5862    8.6899    0.0000 C   0  0  0  0  0  0  0  0  0  0  0  0
    5.8851    6.4399    0.0000 C   0  0  0  0  0  0  0  0  0  0  0  0
    5.8851    9.4399    0.0000 C   0  0  0  0  0  0  0  0  0  0  0  0
    7.1842    7.1899    0.0000 C   0  0  0  0  0  0  0  0  0  0  0  0
    7.1842    8.6899    0.0000 C   0  0  0  0  0  0  0  0  0  0  0  0
    5.8851   10.9399    0.0000 C   0  0  0  0  0  0  0  0  0  0  0  0
    8.4833    6.4399    0.0000 C   0  0  0  0  0  0  0  0  0  0  0  0
  1 10  2  0  0  0  0
  2 20  2  0  0  0  0
  3 10  1  0  0  0  0
  3 12  1  0  0  0  0
  4 16  1  0  0  0  0
  4 20  1  0  0  0  0
  5 20  1  0  0  0  0
  5 22  1  0  0  0  0
  6  7  1  0  0  0  0
  6  8  2  0  0  0  0
  6 12  1  0  0  0  0
  7  9  1  0  0  0  0
  7 13  2  0  0  0  0
  8 10  1  0  0  0  0
  8 14  1  0  0  0  0
  9 11  1  0  0  0  0
  9 15  2  0  0  0  0
 11 18  2  0  0  0  0
 11 21  1  0  0  0  0
 13 17  1  0  0  0  0
 14 17  2  0  0  0  0
 15 19  1  0  0  0  0
 16 18  1  0  0  0  0
 16 19  2  0  0  0  0
 22 23  2  0  0  0  0
 22 24  1  0  0  0  0
 23 25  1  0  0  0  0
 24 26  2  0  0  0  0
 25 27  2  0  0  0  0
 25 28  1  0  0  0  0
 26 27  1  0  0  0  0
 26 29  1  0  0  0  0
M  END
> <Value>
5.899998417198648

> <Relation>
<

> <SourceURI>
mol:CHEMBL2004311

$$$$

Generated by Molecular Materials Informatics

 16 18  0  0  0  0  0  0  0  0999 V2000
    3.8800    1.0140    0.0000 Br  0  0  0  0  0  0  0  0  0  0  0  0
   -1.4437   -1.6994    0.0000 N   0  0  0  0  0  0  0  0  0  0  0  0
    1.2820   -1.9860    0.0000 N   0  0  0  0  0  0  0  0  0  0  0  0
   -0.0171    0.2640    0.0000 C   0  0  0  0  0  0  0  0  0  0  0  0
   -1.4437    0.7275    0.0000 C   0  0  0  0  0  0  0  0  0  0  0  0
   -0.0171   -1.2360    0.0000 C   0  0  0  0  0  0  0  0  0  0  0  0
   -1.9073    2.1542    0.0000 C   0  0  0  0  0  0  0  0  0  0  0  0
   -2.3253   -0.4860    0.0000 C   0  0  0  0  0  0  0  0  0  0  0  0
    1.2820    1.0140    0.0000 C   0  0  0  0  0  0  0  0  0  0  0  0
    2.5809    0.2640    0.0000 C   0  0  0  0  0  0  0  0  0  0  0  0
    2.5809   -1.2360    0.0000 C   0  0  0  0  0  0  0  0  0  0  0  0
   -3.3744    2.4660    0.0000 C   0  0  0  0  0  0  0  0  0  0  0  0
   -0.9035    3.2689    0.0000 C   0  0  0  0  0  0  0  0  0  0  0  0
   -3.8381    3.8926    0.0000 C   0  0  0  0  0  0  0  0  0  0  0  0
   -1.3671    4.6955    0.0000 C   0  0  0  0  0  0  0  0  0  0  0  0
   -2.8342    5.0073    0.0000 C   0  0  0  0  0  0  0  0  0  0  0  0
  1 10  1  0  0  0  0
  2  6  1  0  0  0  0
  2  8  1  0  0  0  0
  3  6  2  0  0  0  0
  3 11  1  0  0  0  0
  4  5  1  0  0  0  0
  4  6  1  0  0  0  0
  4  9  2  0  0  0  0
  5  7  1  0  0  0  0
  5  8  2  0  0  0  0
  7 12  2  0  0  0  0
  7 13  1  0  0  0  0
  9 10  1  0  0  0  0
 10 11  2  0  0  0  0
 12 14  1  0  0  0  0
 13 15  2  0  0  0  0
 14 16  2  0  0  0  0
 15 16  1  0  0  0  0
M  END
> <Value>
5.899998417198648

> <Relation>
<

> <SourceURI>
mol:CHEMBL1992634

$$$$

Generated by Molecular Materials Informatics

 29 33  0  0  0  0  0  0  0  0999 V2000
   -8.4135   -9.9440    0.0000 N   0  0  0  0  0  0  0  0  0  0  0  0
   -8.5863  -11.4382    0.0000 C   0  0  0  0  0  0  0  0  0  0  0  0
   -7.3803  -12.3311    0.0000 N   0  0  0  0  0  0  0  0  0  0  0  0
   -7.0430   -9.3451    0.0000 C   0  0  0  0  0  0  0  0  0  0  0  0
   -5.8350  -10.2315    0.0000 C   0  0  0  0  0  0  0  0  0  0  0  0
   -6.0060  -11.7326    0.0000 C   0  0  0  0  0  0  0  0  0  0  0  0
   -4.6311  -12.3591    0.0000 S   0  0  0  0  0  0  0  0  0  0  0  0
   -6.8773   -7.8545    0.0000 N   0  0  0  0  0  0  0  0  0  0  0  0
   -4.3547   -9.9304    0.0000 C   0  0  0  0  0  0  0  0  0  0  0  0
   -3.6073  -11.2362    0.0000 C   0  0  0  0  0  0  0  0  0  0  0  0
   -2.1113  -11.2420    0.0000 C   0  0  0  0  0  0  0  0  0  0  0  0
   -1.3510   -9.9451    0.0000 C   0  0  0  0  0  0  0  0  0  0  0  0
   -3.6055   -8.6304    0.0000 C   0  0  0  0  0  0  0  0  0  0  0  0
   -2.1038   -8.6404    0.0000 C   0  0  0  0  0  0  0  0  0  0  0  0
   -1.3475   -7.3468    0.0000 C   0  0  0  0  0  0  0  0  0  0  0  0
   -2.0911   -6.0424    0.0000 C   0  0  0  0  0  0  0  0  0  0  0  0
   -3.5986   -6.0397    0.0000 C   0  0  0  0  0  0  0  0  0  0  0  0
   -4.3481   -7.3344    0.0000 C   0  0  0  0  0  0  0  0  0  0  0  0
   -1.3364   -4.7461    0.0000 N   0  0  0  0  0  0  0  0  0  0  0  0
    0.1632   -4.7517    0.0000 C   0  0  0  0  0  0  0  0  0  0  0  0
    0.9178   -3.4558    0.0000 N   0  0  0  0  0  0  0  0  0  0  0  0
    0.9084   -6.0535    0.0000 O   0  0  0  0  0  0  0  0  0  0  0  0
    2.4178   -3.4614    0.0000 C   0  0  0  0  0  0  0  0  0  0  0  0
    3.1552   -4.7648    0.0000 C   0  0  0  0  0  0  0  0  0  0  0  0
    4.6538   -4.7710    0.0000 C   0  0  0  0  0  0  0  0  0  0  0  0
    5.4097   -3.4741    0.0000 C   0  0  0  0  0  0  0  0  0  0  0  0
    4.6567   -2.1680    0.0000 C   0  0  0  0  0  0  0  0  0  0  0  0
    3.1607   -2.1683    0.0000 C   0  0  0  0  0  0  0  0  0  0  0  0
    5.4066   -0.8694    0.0000 C   0  0  0  0  0  0  0  0  0  0  0  0
  3  6  2  0  0  0  0
 13 14  2  0  0  0  0
  6  7  1  0  0  0  0
 14 15  1  0  0  0  0
  7 10  1  0  0  0  0
 15 16  2  0  0  0  0
  9  5  1  0  0  0  0
 16 17  1  0  0  0  0
  1  2  2  0  0  0  0
 17 18  2  0  0  0  0
 18 13  1  0  0  0  0
  4  8  1  0  0  0  0
 16 19  1  0  0  0  0
  9 10  2  0  0  0  0
 19 20  1  0  0  0  0
  5  4  2  0  0  0  0
 20 21  1  0  0  0  0
  4  1  1  0  0  0  0
 20 22  2  0  0  0  0
  5  6  1  0  0  0  0
 21 23  1  0  0  0  0
 23 24  2  0  0  0  0
  9 13  1  0  0  0  0
 24 25  1  0  0  0  0
 10 11  1  0  0  0  0
 25 26  2  0  0  0  0
 11 12  1  0  0  0  0
 26 27  1  0  0  0  0
 12 14  1  0  0  0  0
 27 28  2  0  0  0  0
 28 23  1  0  0  0  0
  2  3  1  0  0  0  0
 27 29  1  0  0  0  0
M  END
> <Value>
5.899998417198648

> <Relation>
<

> <SourceURI>
mol:CHEMBL1242373

$$$$

Generated by Molecular Materials Informatics

 27 29  0  0  0  0  0  0  0  0999 V2000
   -4.4769   -7.4632    0.0000 Br  0  0  0  0  0  0  0  0  0  0  0  0
   -9.2446   -2.9141    0.0000 F   0  0  0  0  0  0  0  0  0  0  0  0
   -9.3557   -0.7958    0.0000 F   0  0  0  0  0  0  0  0  0  0  0  0
   -7.1262   -2.8031    0.0000 F   0  0  0  0  0  0  0  0  0  0  0  0
   -7.1606    3.2831    0.0000 O   0  0  0  0  0  0  0  0  0  0  0  0
    0.5011    0.2580    0.0000 O   0  0  0  0  0  0  0  0  0  0  0  0
    3.0993    0.2580    0.0000 O   0  0  0  0  0  0  0  0  0  0  0  0
   -3.3960   -0.4920    0.0000 N   0  0  0  0  0  0  0  0  0  0  0  0
   -3.5527   -1.9838    0.0000 N   0  0  0  0  0  0  0  0  0  0  0  0
   -5.2298    1.5448    0.0000 N   0  0  0  0  0  0  0  0  0  0  0  0
   -5.7700   -0.9965    0.0000 C   0  0  0  0  0  0  0  0  0  0  0  0
   -4.7662    0.1182    0.0000 C   0  0  0  0  0  0  0  0  0  0  0  0
   -5.0200   -2.2956    0.0000 C   0  0  0  0  0  0  0  0  0  0  0  0
   -7.2373   -0.6847    0.0000 C   0  0  0  0  0  0  0  0  0  0  0  0
   -8.2409   -1.7994    0.0000 C   0  0  0  0  0  0  0  0  0  0  0  0
   -5.6300   -3.6660    0.0000 C   0  0  0  0  0  0  0  0  0  0  0  0
   -7.7007    0.7419    0.0000 C   0  0  0  0  0  0  0  0  0  0  0  0
   -6.6971    1.8566    0.0000 C   0  0  0  0  0  0  0  0  0  0  0  0
   -2.0969    0.2580    0.0000 C   0  0  0  0  0  0  0  0  0  0  0  0
   -4.7484   -4.8794    0.0000 C   0  0  0  0  0  0  0  0  0  0  0  0
   -7.1218   -3.8227    0.0000 C   0  0  0  0  0  0  0  0  0  0  0  0
   -5.3586   -6.2498    0.0000 C   0  0  0  0  0  0  0  0  0  0  0  0
   -0.7978   -0.4920    0.0000 C   0  0  0  0  0  0  0  0  0  0  0  0
   -7.7320   -5.1931    0.0000 C   0  0  0  0  0  0  0  0  0  0  0  0
   -6.8504   -6.4065    0.0000 C   0  0  0  0  0  0  0  0  0  0  0  0
    1.8002   -0.4920    0.0000 C   0  0  0  0  0  0  0  0  0  0  0  0
    1.8002   -1.9920    0.0000 C   0  0  0  0  0  0  0  0  0  0  0  0
  1 22  1  0  0  0  0
  2 15  1  0  0  0  0
  3 15  1  0  0  0  0
  4 15  1  0  0  0  0
  5 18  2  0  0  0  0
  6 23  1  0  0  0  0
  6 26  1  0  0  0  0
  7 26  2  0  0  0  0
  8  9  1  0  0  0  0
  8 12  1  0  0  0  0
  8 19  1  0  0  0  0
  9 13  2  0  0  0  0
 10 12  1  0  0  0  0
 10 18  1  0  0  0  0
 11 12  2  0  0  0  0
 11 13  1  0  0  0  0
 11 14  1  0  0  0  0
 13 16  1  0  0  0  0
 14 15  1  0  0  0  0
 14 17  2  0  0  0  0
 16 20  1  0  0  0  0
 16 21  2  0  0  0  0
 17 18  1  0  0  0  0
 19 23  1  0  0  0  0
 20 22  2  0  0  0  0
 21 24  1  0  0  0  0
 22 25  1  0  0  0  0
 24 25  2  0  0  0  0
 26 27  1  0  0  0  0
M  END
> <Value>
5.300000202445418

> <Relation>
<

> <SourceURI>
mol:CHEMBL1984847

$$$$

Generated by Molecular Materials Informatics

 25 28  0  0  0  0  0  0  0  0999 V2000
    4.5193   -0.9971    0.0000 N   0  0  0  0  0  0  0  0  0  0  0  0
    3.0196   -1.0274    0.0000 C   0  0  0  0  0  0  0  0  0  0  0  0
    3.8376   -3.3224    0.0000 N   0  0  0  0  0  0  0  0  0  0  0  0
    2.5955   -2.4741    0.0000 C   0  0  0  0  0  0  0  0  0  0  0  0
    5.0268   -2.4059    0.0000 C   0  0  0  0  0  0  0  0  0  0  0  0
    2.1107    0.1542    0.0000 C   0  0  0  0  0  0  0  0  0  0  0  0
    6.4584   -2.8225    0.0000 C   0  0  0  0  0  0  0  0  0  0  0  0
    1.1867   -2.9740    0.0000 C   0  0  0  0  0  0  0  0  0  0  0  0
   -1.6310   -3.9814    0.0000 N   0  0  0  0  0  0  0  0  0  0  0  0
    2.6864    1.5403    0.0000 C   0  0  0  0  0  0  0  0  0  0  0  0
    0.6337   -0.0503    0.0000 C   0  0  0  0  0  0  0  0  0  0  0  0
    6.8219   -4.2768    0.0000 C   0  0  0  0  0  0  0  0  0  0  0  0
    7.5414   -1.7773    0.0000 C   0  0  0  0  0  0  0  0  0  0  0  0
    9.3442   -3.6633    0.0000 C   0  0  0  0  0  0  0  0  0  0  0  0
    0.2777    2.5401    0.0000 C   0  0  0  0  0  0  0  0  0  0  0  0
    8.2535   -4.7009    0.0000 C   0  0  0  0  0  0  0  0  0  0  0  0
    1.7698    2.7295    0.0000 C   0  0  0  0  0  0  0  0  0  0  0  0
    8.9806   -2.2014    0.0000 C   0  0  0  0  0  0  0  0  0  0  0  0
   -0.2903    1.1312    0.0000 C   0  0  0  0  0  0  0  0  0  0  0  0
   -0.6312    3.7217    0.0000 F   0  0  0  0  0  0  0  0  0  0  0  0
   10.6394   -4.4131    0.0000 F   0  0  0  0  0  0  0  0  0  0  0  0
   -1.3583   -2.5044    0.0000 C   0  0  0  0  0  0  0  0  0  0  0  0
   -0.4798   -4.9509    0.0000 C   0  0  0  0  0  0  0  0  0  0  0  0
    0.0505   -2.0045    0.0000 C   0  0  0  0  0  0  0  0  0  0  0  0
    0.9140   -4.4359    0.0000 C   0  0  0  0  0  0  0  0  0  0  0  0
  2  1  1  0  0  0  0
  3  5  1  0  0  0  0
  4  2  2  0  0  0  0
  5  1  2  0  0  0  0
  6  2  1  0  0  0  0
  7  5  1  0  0  0  0
  8  4  1  0  0  0  0
  9 23  1  0  0  0  0
 10  6  2  0  0  0  0
 11  6  1  0  0  0  0
 12  7  2  0  0  0  0
 13  7  1  0  0  0  0
 14 18  1  0  0  0  0
 15 19  1  0  0  0  0
 16 12  1  0  0  0  0
 17 10  1  0  0  0  0
 18 13  2  0  0  0  0
 19 11  2  0  0  0  0
 20 15  1  0  0  0  0
 21 14  1  0  0  0  0
 22 24  1  0  0  0  0
 23 25  2  0  0  0  0
 24  8  2  0  0  0  0
 25  8  1  0  0  0  0
  3  4  1  0  0  0  0
 14 16  2  0  0  0  0
 15 17  2  0  0  0  0
  9 22  2  0  0  0  0
M  END
> <Value>
5.899998417198648

> <Relation>
<

> <SourceURI>
mol:CHEMBL316264

$$$$

Generated by Molecular Materials Informatics

 34 38  0  0  0  0  0  0  0  0999 V2000
    0.7929    3.7794    0.0000 S   0  0  0  0  0  0  0  0  0  0  0  0
   -6.8535   -9.5693    0.0000 F   0  0  0  0  0  0  0  0  0  0  0  0
   -3.5322   -3.5511    0.0000 O   0  0  0  0  0  0  0  0  0  0  0  0
    4.8176    1.8158    0.0000 N   0  0  0  0  0  0  0  0  0  0  0  0
    3.5185   -0.4342    0.0000 N   0  0  0  0  0  0  0  0  0  0  0  0
    4.8176    7.8158    0.0000 N   0  0  0  0  0  0  0  0  0  0  0  0
   -1.0613   -4.3540    0.0000 N   0  0  0  0  0  0  0  0  0  0  0  0
   -2.9920   -6.0924    0.0000 N   0  0  0  0  0  0  0  0  0  0  0  0
    2.2195    1.8158    0.0000 C   0  0  0  0  0  0  0  0  0  0  0  0
    2.2195    3.3158    0.0000 C   0  0  0  0  0  0  0  0  0  0  0  0
    0.7929    1.3523    0.0000 C   0  0  0  0  0  0  0  0  0  0  0  0
    3.5185    4.0658    0.0000 C   0  0  0  0  0  0  0  0  0  0  0  0
    3.5185    1.0658    0.0000 C   0  0  0  0  0  0  0  0  0  0  0  0
    0.3295   -0.0742    0.0000 C   0  0  0  0  0  0  0  0  0  0  0  0
   -0.0887    2.5658    0.0000 C   0  0  0  0  0  0  0  0  0  0  0  0
    3.5185    5.5658    0.0000 C   0  0  0  0  0  0  0  0  0  0  0  0
    4.8176    3.3158    0.0000 C   0  0  0  0  0  0  0  0  0  0  0  0
    1.3331   -1.1889    0.0000 C   0  0  0  0  0  0  0  0  0  0  0  0
   -1.1378   -0.3860    0.0000 C   0  0  0  0  0  0  0  0  0  0  0  0
    4.8176    6.3158    0.0000 C   0  0  0  0  0  0  0  0  0  0  0  0
    2.2195    6.3158    0.0000 C   0  0  0  0  0  0  0  0  0  0  0  0
   -0.5976   -2.9275    0.0000 C   0  0  0  0  0  0  0  0  0  0  0  0
    0.8695   -2.6155    0.0000 C   0  0  0  0  0  0  0  0  0  0  0  0
   -1.6015   -1.8127    0.0000 C   0  0  0  0  0  0  0  0  0  0  0  0
    2.2195    7.8158    0.0000 C   0  0  0  0  0  0  0  0  0  0  0  0
    3.5185    8.5658    0.0000 C   0  0  0  0  0  0  0  0  0  0  0  0
   -2.5284   -4.6658    0.0000 C   0  0  0  0  0  0  0  0  0  0  0  0
   -4.4591   -6.4044    0.0000 C   0  0  0  0  0  0  0  0  0  0  0  0
    3.5185   10.0658    0.0000 C   0  0  0  0  0  0  0  0  0  0  0  0
   -4.9227   -7.8309    0.0000 C   0  0  0  0  0  0  0  0  0  0  0  0
   -5.4629   -5.2897    0.0000 C   0  0  0  0  0  0  0  0  0  0  0  0
   -6.3900   -8.1427    0.0000 C   0  0  0  0  0  0  0  0  0  0  0  0
   -7.3936   -7.0280    0.0000 C   0  0  0  0  0  0  0  0  0  0  0  0
   -6.9302   -5.6015    0.0000 C   0  0  0  0  0  0  0  0  0  0  0  0
  1 10  1  0  0  0  0
  1 15  1  0  0  0  0
  2 32  1  0  0  0  0
  3 27  2  0  0  0  0
  4 13  2  0  0  0  0
  4 17  1  0  0  0  0
  5 13  1  0  0  0  0
  6 20  2  0  0  0  0
  6 26  1  0  0  0  0
  7 22  1  0  0  0  0
  7 27  1  0  0  0  0
  8 27  1  0  0  0  0
  8 28  1  0  0  0  0
  9 10  2  0  0  0  0
  9 11  1  0  0  0  0
  9 13  1  0  0  0  0
 10 12  1  0  0  0  0
 11 14  1  0  0  0  0
 11 15  2  0  0  0  0
 12 16  1  0  0  0  0
 12 17  2  0  0  0  0
 14 18  2  0  0  0  0
 14 19  1  0  0  0  0
 16 20  1  0  0  0  0
 16 21  2  0  0  0  0
 18 23  1  0  0  0  0
 19 24  2  0  0  0  0
 21 25  1  0  0  0  0
 22 23  2  0  0  0  0
 22 24  1  0  0  0  0
 25 26  2  0  0  0  0
 26 29  1  0  0  0  0
 28 30  1  0  0  0  0
 28 31  2  0  0  0  0
 30 32  2  0  0  0  0
 31 34  1  0  0  0  0
 32 33  1  0  0  0  0
 33 34  2  0  0  0  0
M  END
> <Value>
5.899998417198648

> <Relation>
<

> <SourceURI>
mol:CHEMBL1988075

$$$$

Generated by Molecular Materials Informatics

 32 36  0  0  0  0  0  0  0  0999 V2000
   10.9043   -7.1627    0.0000 F   0  0  0  0  0  0  0  0  0  0  0  0
   12.7224   -6.0694    0.0000 F   0  0  0  0  0  0  0  0  0  0  0  0
    9.8112   -5.3446    0.0000 F   0  0  0  0  0  0  0  0  0  0  0  0
    5.5073   -1.9544    0.0000 O   0  0  0  0  0  0  0  0  0  0  0  0
   11.6291   -4.2514    0.0000 O   0  0  0  0  0  0  0  0  0  0  0  0
    0.5327    0.8636    0.0000 N   0  0  0  0  0  0  0  0  0  0  0  0
    2.9940    4.0815    0.0000 N   0  0  0  0  0  0  0  0  0  0  0  0
    4.7904    0.5427    0.0000 N   0  0  0  0  0  0  0  0  0  0  0  0
    2.6317    2.6260    0.0000 C   0  0  0  0  0  0  0  0  0  0  0  0
    1.1898    2.2120    0.0000 C   0  0  0  0  0  0  0  0  0  0  0  0
    0.1105    3.2537    0.0000 C   0  0  0  0  0  0  0  0  0  0  0  0
   -1.2137    2.5489    0.0000 C   0  0  0  0  0  0  0  0  0  0  0  0
   -0.9528    1.0718    0.0000 C   0  0  0  0  0  0  0  0  0  0  0  0
    2.2693    1.1704    0.0000 C   0  0  0  0  0  0  0  0  0  0  0  0
    4.0733    3.0400    0.0000 C   0  0  0  0  0  0  0  0  0  0  0  0
    0.4729    4.7093    0.0000 C   0  0  0  0  0  0  0  0  0  0  0  0
    1.9146    5.1232    0.0000 C   0  0  0  0  0  0  0  0  0  0  0  0
   -2.6235    3.0615    0.0000 C   0  0  0  0  0  0  0  0  0  0  0  0
    3.3486    0.1287    0.0000 C   0  0  0  0  0  0  0  0  0  0  0  0
    5.1528    1.9984    0.0000 C   0  0  0  0  0  0  0  0  0  0  0  0
   -2.1015    0.1073    0.0000 C   0  0  0  0  0  0  0  0  0  0  0  0
    5.8699   -0.4989    0.0000 C   0  0  0  0  0  0  0  0  0  0  0  0
   -3.7723    2.0969    0.0000 C   0  0  0  0  0  0  0  0  0  0  0  0
   -3.5112    0.6198    0.0000 C   0  0  0  0  0  0  0  0  0  0  0  0
    7.3116   -0.0849    0.0000 C   0  0  0  0  0  0  0  0  0  0  0  0
    8.3910   -1.1266    0.0000 C   0  0  0  0  0  0  0  0  0  0  0  0
   10.5498   -3.2097    0.0000 C   0  0  0  0  0  0  0  0  0  0  0  0
    9.8327   -0.7126    0.0000 C   0  0  0  0  0  0  0  0  0  0  0  0
    8.0287   -2.5820    0.0000 C   0  0  0  0  0  0  0  0  0  0  0  0
   10.9122   -1.7542    0.0000 C   0  0  0  0  0  0  0  0  0  0  0  0
    9.1079   -3.6237    0.0000 C   0  0  0  0  0  0  0  0  0  0  0  0
   11.2667   -5.7070    0.0000 C   0  0  0  0  0  0  0  0  0  0  0  0
  1 32  1  0  0  0  0
  2 32  1  0  0  0  0
  3 32  1  0  0  0  0
  4 22  2  0  0  0  0
  5 27  1  0  0  0  0
  5 32  1  0  0  0  0
  6 10  1  0  0  0  0
  6 13  1  0  0  0  0
  7  9  1  0  0  0  0
  7 17  1  0  0  0  0
  8 19  1  0  0  0  0
  8 20  1  0  0  0  0
  8 22  1  0  0  0  0
  9 10  1  0  0  0  0
  9 14  1  0  0  0  0
  9 15  1  0  0  0  0
 10 11  2  0  0  0  0
 11 12  1  0  0  0  0
 11 16  1  0  0  0  0
 12 13  1  0  0  0  0
 12 18  2  0  0  0  0
 13 21  2  0  0  0  0
 14 19  1  0  0  0  0
 15 20  1  0  0  0  0
 16 17  1  0  0  0  0
 18 23  1  0  0  0  0
 21 24  1  0  0  0  0
 22 25  1  0  0  0  0
 23 24  2  0  0  0  0
 25 26  1  0  0  0  0
 26 28  2  0  0  0  0
 26 29  1  0  0  0  0
 27 30  2  0  0  0  0
 27 31  1  0  0  0  0
 28 30  1  0  0  0  0
 29 31  2  0  0  0  0
M  END
> <Value>
5.300000202445418

> <Relation>
<

> <SourceURI>
mol:CHEMBL1996576

$$$$

Generated by Molecular Materials Informatics

 31 34  0  0  0  0  0  0  0  0999 V2000
   -1.8823    3.7853    0.0000 F   0  0  0  0  0  0  0  0  0  0  0  0
   -6.3823    1.1873    0.0000 F   0  0  0  0  0  0  0  0  0  0  0  0
    2.6600  -10.1914    0.0000 O   0  0  0  0  0  0  0  0  0  0  0  0
    1.9259    0.4373    0.0000 N   0  0  0  0  0  0  0  0  0  0  0  0
    0.4993    2.4008    0.0000 N   0  0  0  0  0  0  0  0  0  0  0  0
    1.0395   -2.5676    0.0000 N   0  0  0  0  0  0  0  0  0  0  0  0
    4.5240    1.9373    0.0000 N   0  0  0  0  0  0  0  0  0  0  0  0
   -0.8912   -4.3060    0.0000 N   0  0  0  0  0  0  0  0  0  0  0  0
    1.5797   -5.1089    0.0000 N   0  0  0  0  0  0  0  0  0  0  0  0
    0.4993   -0.0263    0.0000 C   0  0  0  0  0  0  0  0  0  0  0  0
   -0.3823    1.1873    0.0000 C   0  0  0  0  0  0  0  0  0  0  0  0
    1.9259    1.9373    0.0000 C   0  0  0  0  0  0  0  0  0  0  0  0
    0.0358   -1.4529    0.0000 C   0  0  0  0  0  0  0  0  0  0  0  0
   -1.8823    1.1873    0.0000 C   0  0  0  0  0  0  0  0  0  0  0  0
    3.2249    2.6873    0.0000 C   0  0  0  0  0  0  0  0  0  0  0  0
    3.2249   -0.3127    0.0000 C   0  0  0  0  0  0  0  0  0  0  0  0
   -2.6323    2.4862    0.0000 C   0  0  0  0  0  0  0  0  0  0  0  0
   -2.6323   -0.1118    0.0000 C   0  0  0  0  0  0  0  0  0  0  0  0
   -1.4314   -1.7647    0.0000 C   0  0  0  0  0  0  0  0  0  0  0  0
    4.5240    0.4373    0.0000 C   0  0  0  0  0  0  0  0  0  0  0  0
    0.5759   -3.9941    0.0000 C   0  0  0  0  0  0  0  0  0  0  0  0
   -4.1323    2.4862    0.0000 C   0  0  0  0  0  0  0  0  0  0  0  0
   -4.1323   -0.1118    0.0000 C   0  0  0  0  0  0  0  0  0  0  0  0
   -4.8823    1.1873    0.0000 C   0  0  0  0  0  0  0  0  0  0  0  0
   -1.8951   -3.1914    0.0000 C   0  0  0  0  0  0  0  0  0  0  0  0
    3.2249    4.1873    0.0000 C   0  0  0  0  0  0  0  0  0  0  0  0
    1.1160   -6.5354    0.0000 C   0  0  0  0  0  0  0  0  0  0  0  0
    2.1199   -7.6501    0.0000 C   0  0  0  0  0  0  0  0  0  0  0  0
    3.1235   -8.7649    0.0000 C   0  0  0  0  0  0  0  0  0  0  0  0
    3.2346   -6.6465    0.0000 C   0  0  0  0  0  0  0  0  0  0  0  0
    1.0051   -8.6540    0.0000 C   0  0  0  0  0  0  0  0  0  0  0  0
  1 17  1  0  0  0  0
  2 24  1  0  0  0  0
  3 29  1  0  0  0  0
  4 10  1  0  0  0  0
  4 12  1  0  0  0  0
  4 16  1  0  0  0  0
  5 11  1  0  0  0  0
  5 12  2  0  0  0  0
  6 13  1  0  0  0  0
  6 21  2  0  0  0  0
  7 15  2  0  0  0  0
  7 20  1  0  0  0  0
  8 21  1  0  0  0  0
  8 25  2  0  0  0  0
  9 21  1  0  0  0  0
  9 27  1  0  0  0  0
 10 11  2  0  0  0  0
 10 13  1  0  0  0  0
 11 14  1  0  0  0  0
 12 15  1  0  0  0  0
 13 19  2  0  0  0  0
 14 17  1  0  0  0  0
 14 18  2  0  0  0  0
 15 26  1  0  0  0  0
 16 20  2  0  0  0  0
 17 22  2  0  0  0  0
 18 23  1  0  0  0  0
 19 25  1  0  0  0  0
 22 24  1  0  0  0  0
 23 24  2  0  0  0  0
 27 28  1  0  0  0  0
 28 29  1  0  0  0  0
 28 30  1  0  0  0  0
 28 31  1  0  0  0  0
M  END
> <Value>
5.300000202445418

> <Relation>
<

> <SourceURI>
mol:CHEMBL1991678

$$$$

Generated by Molecular Materials Informatics

 30 32  0  0  0  0  0  0  0  0999 V2000
    6.9625  -10.9312    0.0000 Cl  0  0  0  0  0  0  0  0  0  0  0  0
   -3.4296  -13.9312    0.0000 F   0  0  0  0  0  0  0  0  0  0  0  0
   -4.9296  -12.4312    0.0000 F   0  0  0  0  0  0  0  0  0  0  0  0
   -1.9296  -12.4312    0.0000 F   0  0  0  0  0  0  0  0  0  0  0  0
    0.4675  -10.1812    0.0000 O   0  0  0  0  0  0  0  0  0  0  0  0
   -4.7287  -10.1812    0.0000 O   0  0  0  0  0  0  0  0  0  0  0  0
    0.4675   -4.1813    0.0000 N   0  0  0  0  0  0  0  0  0  0  0  0
   -2.1307  -10.1812    0.0000 N   0  0  0  0  0  0  0  0  0  0  0  0
   -0.8316   -1.9313    0.0000 N   0  0  0  0  0  0  0  0  0  0  0  0
   -2.1307   -4.1813    0.0000 N   0  0  0  0  0  0  0  0  0  0  0  0
   -3.4296   -1.9313    0.0000 N   0  0  0  0  0  0  0  0  0  0  0  0
   -2.1307    0.3187    0.0000 N   0  0  0  0  0  0  0  0  0  0  0  0
    1.7664   -7.9312    0.0000 C   0  0  0  0  0  0  0  0  0  0  0  0
    0.4675   -8.6812    0.0000 C   0  0  0  0  0  0  0  0  0  0  0  0
   -0.8316   -7.9312    0.0000 C   0  0  0  0  0  0  0  0  0  0  0  0
    0.4675   -5.6813    0.0000 C   0  0  0  0  0  0  0  0  0  0  0  0
    3.0654   -8.6812    0.0000 C   0  0  0  0  0  0  0  0  0  0  0  0
    1.7664   -6.4313    0.0000 C   0  0  0  0  0  0  0  0  0  0  0  0
   -0.8316   -6.4313    0.0000 C   0  0  0  0  0  0  0  0  0  0  0  0
   -2.1307   -8.6812    0.0000 C   0  0  0  0  0  0  0  0  0  0  0  0
   -0.8316   -3.4313    0.0000 C   0  0  0  0  0  0  0  0  0  0  0  0
    4.3645   -7.9312    0.0000 C   0  0  0  0  0  0  0  0  0  0  0  0
    3.0654  -10.1812    0.0000 C   0  0  0  0  0  0  0  0  0  0  0  0
   -3.4296  -10.9312    0.0000 C   0  0  0  0  0  0  0  0  0  0  0  0
   -3.4296  -12.4312    0.0000 C   0  0  0  0  0  0  0  0  0  0  0  0
    5.6636   -8.6812    0.0000 C   0  0  0  0  0  0  0  0  0  0  0  0
    4.3645  -10.9312    0.0000 C   0  0  0  0  0  0  0  0  0  0  0  0
    5.6636  -10.1812    0.0000 C   0  0  0  0  0  0  0  0  0  0  0  0
   -2.1307   -1.1813    0.0000 C   0  0  0  0  0  0  0  0  0  0  0  0
   -3.4296   -3.4313    0.0000 C   0  0  0  0  0  0  0  0  0  0  0  0
  1 28  1  0  0  0  0
  2 25  1  0  0  0  0
  3 25  1  0  0  0  0
  4 25  1  0  0  0  0
  5 14  1  0  0  0  0
  6 24  2  0  0  0  0
  7 16  1  0  0  0  0
  7 21  1  0  0  0  0
  8 20  1  0  0  0  0
  8 24  1  0  0  0  0
  9 21  2  0  0  0  0
  9 29  1  0  0  0  0
 10 21  1  0  0  0  0
 10 30  2  0  0  0  0
 11 29  2  0  0  0  0
 11 30  1  0  0  0  0
 12 29  1  0  0  0  0
 13 14  1  0  0  0  0
 13 17  1  0  0  0  0
 13 18  2  0  0  0  0
 14 15  2  0  0  0  0
 15 19  1  0  0  0  0
 15 20  1  0  0  0  0
 16 18  1  0  0  0  0
 16 19  2  0  0  0  0
 17 22  2  0  0  0  0
 17 23  1  0  0  0  0
 22 26  1  0  0  0  0
 23 27  2  0  0  0  0
 24 25  1  0  0  0  0
 26 28  2  0  0  0  0
 27 28  1  0  0  0  0
M  END
> <Value>
5.899998417198648

> <Relation>
<

> <SourceURI>
mol:CHEMBL2001239

$$$$

Generated by Molecular Materials Informatics

 29 32  0  0  0  0  0  0  0  0999 V2000
    0.0303   -3.4447    0.0000 S   0  0  0  0  0  0  0  0  0  0  0  0
    0.5705    1.5237    0.0000 O   0  0  0  0  0  0  0  0  0  0  0  0
   -1.2837    7.2298    0.0000 O   0  0  0  0  0  0  0  0  0  0  0  0
    2.7560   -3.7313    0.0000 N   0  0  0  0  0  0  0  0  0  0  0  0
    4.0549   -1.4813    0.0000 N   0  0  0  0  0  0  0  0  0  0  0  0
   -1.9004    0.7207    0.0000 N   0  0  0  0  0  0  0  0  0  0  0  0
    2.7560    0.7687    0.0000 N   0  0  0  0  0  0  0  0  0  0  0  0
   -3.7546    6.4271    0.0000 N   0  0  0  0  0  0  0  0  0  0  0  0
   -3.2144    8.9684    0.0000 N   0  0  0  0  0  0  0  0  0  0  0  0
    1.4569   -1.4813    0.0000 C   0  0  0  0  0  0  0  0  0  0  0  0
    0.0303   -1.0178    0.0000 C   0  0  0  0  0  0  0  0  0  0  0  0
    1.4569   -2.9813    0.0000 C   0  0  0  0  0  0  0  0  0  0  0  0
    2.7560   -0.7313    0.0000 C   0  0  0  0  0  0  0  0  0  0  0  0
   -0.4333    0.4089    0.0000 C   0  0  0  0  0  0  0  0  0  0  0  0
   -0.8513   -2.2313    0.0000 C   0  0  0  0  0  0  0  0  0  0  0  0
    4.0549   -2.9813    0.0000 C   0  0  0  0  0  0  0  0  0  0  0  0
   -2.3641    2.1473    0.0000 C   0  0  0  0  0  0  0  0  0  0  0  0
   -3.8312    2.4591    0.0000 C   0  0  0  0  0  0  0  0  0  0  0  0
   -1.3602    3.2620    0.0000 C   0  0  0  0  0  0  0  0  0  0  0  0
   -3.2910    5.0006    0.0000 C   0  0  0  0  0  0  0  0  0  0  0  0
   -4.2948    3.8858    0.0000 C   0  0  0  0  0  0  0  0  0  0  0  0
   -1.8239    4.6886    0.0000 C   0  0  0  0  0  0  0  0  0  0  0  0
   -2.7510    7.5418    0.0000 C   0  0  0  0  0  0  0  0  0  0  0  0
   -4.6817    9.2802    0.0000 C   0  0  0  0  0  0  0  0  0  0  0  0
   -5.6853    8.1655    0.0000 C   0  0  0  0  0  0  0  0  0  0  0  0
   -5.1452   10.7068    0.0000 C   0  0  0  0  0  0  0  0  0  0  0  0
   -7.1526    8.4775    0.0000 C   0  0  0  0  0  0  0  0  0  0  0  0
   -6.6124   11.0188    0.0000 C   0  0  0  0  0  0  0  0  0  0  0  0
   -7.6161    9.9040    0.0000 C   0  0  0  0  0  0  0  0  0  0  0  0
  1 12  1  0  0  0  0
  1 15  1  0  0  0  0
  2 14  2  0  0  0  0
  3 23  2  0  0  0  0
  4 12  1  0  0  0  0
  4 16  2  0  0  0  0
  5 13  2  0  0  0  0
  5 16  1  0  0  0  0
  6 14  1  0  0  0  0
  6 17  1  0  0  0  0
  7 13  1  0  0  0  0
  8 20  1  0  0  0  0
  8 23  1  0  0  0  0
  9 23  1  0  0  0  0
  9 24  1  0  0  0  0
 10 11  1  0  0  0  0
 10 12  2  0  0  0  0
 10 13  1  0  0  0  0
 11 14  1  0  0  0  0
 11 15  2  0  0  0  0
 17 18  2  0  0  0  0
 17 19  1  0  0  0  0
 18 21  1  0  0  0  0
 19 22  2  0  0  0  0
 20 21  2  0  0  0  0
 20 22  1  0  0  0  0
 24 25  2  0  0  0  0
 24 26  1  0  0  0  0
 25 27  1  0  0  0  0
 26 28  2  0  0  0  0
 27 29  2  0  0  0  0
 28 29  1  0  0  0  0
M  END
> <Value>
5.899998417198648

> <Relation>
<

> <SourceURI>
mol:CHEMBL1988594

$$$$

Generated by Molecular Materials Informatics

 20 22  0  0  0  0  0  0  0  0999 V2000
   -1.4554    3.9475    0.0000 I   0  0  0  0  0  0  0  0  0  0  0  0
   -2.8820   -1.7963    0.0000 O   0  0  0  0  0  0  0  0  0  0  0  0
    0.9264   -2.5463    0.0000 O   0  0  0  0  0  0  0  0  0  0  0  0
   -0.9918   -5.1865    0.0000 O   0  0  0  0  0  0  0  0  0  0  0  0
   -3.9387   -5.6697    0.0000 O   0  0  0  0  0  0  0  0  0  0  0  0
   -0.9918    0.0939    0.0000 N   0  0  0  0  0  0  0  0  0  0  0  0
   -1.8734    1.3073    0.0000 N   0  0  0  0  0  0  0  0  0  0  0  0
    1.7338   -0.1927    0.0000 N   0  0  0  0  0  0  0  0  0  0  0  0
    3.0327    2.0573    0.0000 N   0  0  0  0  0  0  0  0  0  0  0  0
    1.7338    4.3073    0.0000 N   0  0  0  0  0  0  0  0  0  0  0  0
   -1.4554   -1.3328    0.0000 C   0  0  0  0  0  0  0  0  0  0  0  0
    0.4347    0.5573    0.0000 C   0  0  0  0  0  0  0  0  0  0  0  0
    0.4347    2.0573    0.0000 C   0  0  0  0  0  0  0  0  0  0  0  0
   -0.5736   -2.5463    0.0000 C   0  0  0  0  0  0  0  0  0  0  0  0
   -0.9918    2.5208    0.0000 C   0  0  0  0  0  0  0  0  0  0  0  0
   -1.4554   -3.7597    0.0000 C   0  0  0  0  0  0  0  0  0  0  0  0
   -2.8820   -3.2963    0.0000 C   0  0  0  0  0  0  0  0  0  0  0  0
    1.7338    2.8073    0.0000 C   0  0  0  0  0  0  0  0  0  0  0  0
    3.0327    0.5573    0.0000 C   0  0  0  0  0  0  0  0  0  0  0  0
   -4.0954   -4.1779    0.0000 C   0  0  0  0  0  0  0  0  0  0  0  0
  1 15  1  0  0  0  0
  2 11  1  0  0  0  0
  2 17  1  0  0  0  0
  3 14  1  0  0  0  0
  4 16  1  0  0  0  0
  5 20  1  0  0  0  0
  6  7  1  0  0  0  0
  6 11  1  0  0  0  0
  6 12  1  0  0  0  0
  7 15  2  0  0  0  0
  8 12  1  0  0  0  0
  8 19  2  0  0  0  0
  9 18  2  0  0  0  0
  9 19  1  0  0  0  0
 10 18  1  0  0  0  0
 11 14  1  0  0  0  0
 12 13  2  0  0  0  0
 13 15  1  0  0  0  0
 13 18  1  0  0  0  0
 14 16  1  0  0  0  0
 16 17  1  0  0  0  0
 17 20  1  0  0  0  0
M  END
> <Value>
6.0

> <Relation>
=

> <SourceURI>
mol:CHEMBL2001288

$$$$

Generated by Molecular Materials Informatics

 33 37  0  0  0  0  0  0  0  0999 V2000
   -0.3103   -2.0989    0.0000 O   0  0  0  0  0  0  0  0  0  0  0  0
   -2.3178    2.5577    0.0000 N   0  0  0  0  0  0  0  0  0  0  0  0
   -3.1994    1.3442    0.0000 N   0  0  0  0  0  0  0  0  0  0  0  0
   -2.7812   -1.2960    0.0000 N   0  0  0  0  0  0  0  0  0  0  0  0
    5.3799   -0.6605    0.0000 N   0  0  0  0  0  0  0  0  0  0  0  0
    3.1628   -1.6476    0.0000 N   0  0  0  0  0  0  0  0  0  0  0  0
    4.6299   -1.9596    0.0000 N   0  0  0  0  0  0  0  0  0  0  0  0
   -3.6318   -8.1171    0.0000 N   0  0  0  0  0  0  0  0  0  0  0  0
   -0.8912    0.5942    0.0000 C   0  0  0  0  0  0  0  0  0  0  0  0
   -0.8912    2.0942    0.0000 C   0  0  0  0  0  0  0  0  0  0  0  0
   -2.3178    0.1306    0.0000 C   0  0  0  0  0  0  0  0  0  0  0  0
    1.7069    0.5942    0.0000 C   0  0  0  0  0  0  0  0  0  0  0  0
    0.4079   -0.1558    0.0000 C   0  0  0  0  0  0  0  0  0  0  0  0
    3.0059   -0.1558    0.0000 C   0  0  0  0  0  0  0  0  0  0  0  0
    0.4079    2.8442    0.0000 C   0  0  0  0  0  0  0  0  0  0  0  0
    1.7069    2.0942    0.0000 C   0  0  0  0  0  0  0  0  0  0  0  0
    4.3762    0.4542    0.0000 C   0  0  0  0  0  0  0  0  0  0  0  0
   -1.7776   -2.4107    0.0000 C   0  0  0  0  0  0  0  0  0  0  0  0
   -2.2412   -3.8373    0.0000 C   0  0  0  0  0  0  0  0  0  0  0  0
    6.8717   -0.5036    0.0000 C   0  0  0  0  0  0  0  0  0  0  0  0
   -1.2374   -4.9520    0.0000 C   0  0  0  0  0  0  0  0  0  0  0  0
   -3.7083   -4.1491    0.0000 C   0  0  0  0  0  0  0  0  0  0  0  0
    7.7533   -1.7173    0.0000 C   0  0  0  0  0  0  0  0  0  0  0  0
   -3.1681   -6.6905    0.0000 C   0  0  0  0  0  0  0  0  0  0  0  0
   -1.7011   -6.3785    0.0000 C   0  0  0  0  0  0  0  0  0  0  0  0
   -4.1720   -5.5758    0.0000 C   0  0  0  0  0  0  0  0  0  0  0  0
    9.2451   -1.5603    0.0000 C   0  0  0  0  0  0  0  0  0  0  0  0
    7.1433   -3.0876    0.0000 C   0  0  0  0  0  0  0  0  0  0  0  0
   10.1268   -2.7740    0.0000 C   0  0  0  0  0  0  0  0  0  0  0  0
    8.0250   -4.3011    0.0000 C   0  0  0  0  0  0  0  0  0  0  0  0
    9.5168   -4.1443    0.0000 C   0  0  0  0  0  0  0  0  0  0  0  0
   -2.6280   -9.2318    0.0000 C   0  0  0  0  0  0  0  0  0  0  0  0
   -5.0989   -8.4289    0.0000 C   0  0  0  0  0  0  0  0  0  0  0  0
  1 18  2  0  0  0  0
  2  3  1  0  0  0  0
  2 10  1  0  0  0  0
  3 11  2  0  0  0  0
  4 11  1  0  0  0  0
  4 18  1  0  0  0  0
  5  7  1  0  0  0  0
  5 17  1  0  0  0  0
  5 20  1  0  0  0  0
  6  7  2  0  0  0  0
  6 14  1  0  0  0  0
  8 24  1  0  0  0  0
  8 32  1  0  0  0  0
  8 33  1  0  0  0  0
  9 10  1  0  0  0  0
  9 11  1  0  0  0  0
  9 13  2  0  0  0  0
 10 15  2  0  0  0  0
 12 13  1  0  0  0  0
 12 14  1  0  0  0  0
 12 16  2  0  0  0  0
 14 17  2  0  0  0  0
 15 16  1  0  0  0  0
 18 19  1  0  0  0  0
 19 21  2  0  0  0  0
 19 22  1  0  0  0  0
 20 23  1  0  0  0  0
 21 25  1  0  0  0  0
 22 26  2  0  0  0  0
 23 27  2  0  0  0  0
 23 28  1  0  0  0  0
 24 25  2  0  0  0  0
 24 26  1  0  0  0  0
 27 29  1  0  0  0  0
 28 30  2  0  0  0  0
 29 31  2  0  0  0  0
 30 31  1  0  0  0  0
M  END
> <Value>
7.400007822415902

> <Relation>
=

> <SourceURI>
mol:CHEMBL1992363

$$$$

Generated by Molecular Materials Informatics

 32 35  0  0  0  0  0  0  0  0999 V2000
    5.8523  -17.0914    0.0000 N   0  0  0  0  0  0  0  0  0  0  0  0
    5.8502  -18.5957    0.0000 C   0  0  0  0  0  0  0  0  0  0  0  0
    7.1498  -19.3464    0.0000 N   0  0  0  0  0  0  0  0  0  0  0  0
    7.1465  -16.3410    0.0000 C   0  0  0  0  0  0  0  0  0  0  0  0
    8.4490  -18.5873    0.0000 C   0  0  0  0  0  0  0  0  0  0  0  0
    8.4472  -17.0848    0.0000 C   0  0  0  0  0  0  0  0  0  0  0  0
    9.6255  -16.1361    0.0000 N   0  0  0  0  0  0  0  0  0  0  0  0
    9.6353  -19.5260    0.0000 N   0  0  0  0  0  0  0  0  0  0  0  0
   11.0976  -16.4590    0.0000 C   0  0  0  0  0  0  0  0  0  0  0  0
   11.1076  -19.1826    0.0000 C   0  0  0  0  0  0  0  0  0  0  0  0
   11.7532  -17.8162    0.0000 C   0  0  0  0  0  0  0  0  0  0  0  0
   12.0261  -15.2823    0.0000 C   0  0  0  0  0  0  0  0  0  0  0  0
   13.5119  -15.5016    0.0000 C   0  0  0  0  0  0  0  0  0  0  0  0
   14.4411  -14.3258    0.0000 C   0  0  0  0  0  0  0  0  0  0  0  0
   13.8866  -12.9304    0.0000 C   0  0  0  0  0  0  0  0  0  0  0  0
   12.3939  -12.7177    0.0000 C   0  0  0  0  0  0  0  0  0  0  0  0
   11.4714  -13.8955    0.0000 C   0  0  0  0  0  0  0  0  0  0  0  0
    7.1421  -14.8411    0.0000 N   0  0  0  0  0  0  0  0  0  0  0  0
   14.8146  -11.7521    0.0000 N   0  0  0  0  0  0  0  0  0  0  0  0
   16.2991  -11.9664    0.0000 C   0  0  0  0  0  0  0  0  0  0  0  0
   17.2271  -10.7879    0.0000 N   0  0  0  0  0  0  0  0  0  0  0  0
   16.8556  -13.3593    0.0000 O   0  0  0  0  0  0  0  0  0  0  0  0
   18.7115  -11.0025    0.0000 C   0  0  0  0  0  0  0  0  0  0  0  0
   19.2626  -12.3979    0.0000 C   0  0  0  0  0  0  0  0  0  0  0  0
   20.7457  -12.6128    0.0000 C   0  0  0  0  0  0  0  0  0  0  0  0
   21.6753  -11.4335    0.0000 C   0  0  0  0  0  0  0  0  0  0  0  0
   21.1113  -10.0352    0.0000 C   0  0  0  0  0  0  0  0  0  0  0  0
   19.6299   -9.8271    0.0000 C   0  0  0  0  0  0  0  0  0  0  0  0
   22.0351   -8.8536    0.0000 C   0  0  0  0  0  0  0  0  0  0  0  0
   22.7710   -7.5464    0.0000 F   0  0  0  0  0  0  0  0  0  0  0  0
   23.2830   -9.6858    0.0000 F   0  0  0  0  0  0  0  0  0  0  0  0
   20.7871   -8.0215    0.0000 F   0  0  0  0  0  0  0  0  0  0  0  0
 15 16  1  0  0  0  0
  5  8  1  0  0  0  0
 16 17  2  0  0  0  0
 17 12  1  0  0  0  0
  9 12  1  0  0  0  0
  6  4  2  0  0  0  0
  4 18  1  0  0  0  0
  7  9  2  0  0  0  0
 15 19  1  0  0  0  0
  4  1  1  0  0  0  0
 19 20  1  0  0  0  0
  8 10  1  0  0  0  0
 20 21  1  0  0  0  0
 20 22  2  0  0  0  0
  9 11  1  0  0  0  0
 21 23  1  0  0  0  0
 10 11  1  0  0  0  0
 23 24  2  0  0  0  0
  2  3  1  0  0  0  0
 24 25  1  0  0  0  0
  5  6  1  0  0  0  0
 25 26  2  0  0  0  0
 12 13  2  0  0  0  0
 26 27  1  0  0  0  0
  3  5  2  0  0  0  0
 27 28  2  0  0  0  0
 28 23  1  0  0  0  0
 13 14  1  0  0  0  0
 27 29  1  0  0  0  0
  6  7  1  0  0  0  0
 29 30  1  0  0  0  0
 14 15  2  0  0  0  0
 29 31  1  0  0  0  0
  1  2  2  0  0  0  0
 29 32  1  0  0  0  0
M  END
> <Value>
5.899998417198648

> <Relation>
<

> <SourceURI>
mol:CHEMBL260092

$$$$

Generated by Molecular Materials Informatics

 32 34  0  0  0  0  0  0  0  0999 V2000
   -1.8423   -3.4358    0.0000 N   0  0  0  0  0  0  0  0  0  0  0  0
   -4.3835   -2.8956    0.0000 O   0  0  0  0  0  0  0  0  0  0  0  0
    1.3233    1.1452    0.0000 O   0  0  0  0  0  0  0  0  0  0  0  0
   -7.7854    3.6336    0.0000 F   0  0  0  0  0  0  0  0  0  0  0  0
   -7.2424   -1.5340    0.0000 F   0  0  0  0  0  0  0  0  0  0  0  0
  -11.9892    0.5794    0.0000 Br  0  0  0  0  0  0  0  0  0  0  0  0
   -9.8874    2.1065    0.0000 C   0  0  0  0  0  0  0  0  0  0  0  0
   -9.6158   -0.4773    0.0000 C   0  0  0  0  0  0  0  0  0  0  0  0
    5.2203   -1.1047    0.0000 C   0  0  0  0  0  0  0  0  0  0  0  0
    6.5194   -0.3547    0.0000 C   0  0  0  0  0  0  0  0  0  0  0  0
   11.4913    0.1498    0.0000 C   0  0  0  0  0  0  0  0  0  0  0  0
   10.7413    1.4489    0.0000 C   0  0  0  0  0  0  0  0  0  0  0  0
    3.9212   -0.3547    0.0000 C   0  0  0  0  0  0  0  0  0  0  0  0
    7.8183   -1.1047    0.0000 C   0  0  0  0  0  0  0  0  0  0  0  0
   10.4877   -0.9649    0.0000 C   0  0  0  0  0  0  0  0  0  0  0  0
    9.2741    1.1371    0.0000 C   0  0  0  0  0  0  0  0  0  0  0  0
   -6.0222    1.2065    0.0000 C   0  0  0  0  0  0  0  0  0  0  0  0
   -2.8988    1.4489    0.0000 N   0  0  0  0  0  0  0  0  0  0  0  0
    2.6222   -1.1047    0.0000 N   0  0  0  0  0  0  0  0  0  0  0  0
    0.0242   -1.1047    0.0000 N   0  0  0  0  0  0  0  0  0  0  0  0
   -5.1406   -0.0069    0.0000 O   0  0  0  0  0  0  0  0  0  0  0  0
   -1.4316    1.1371    0.0000 S   0  0  0  0  0  0  0  0  0  0  0  0
   -2.9570   -2.4320    0.0000 C   0  0  0  0  0  0  0  0  0  0  0  0
    1.3233   -0.3547    0.0000 C   0  0  0  0  0  0  0  0  0  0  0  0
  -10.4974    0.7362    0.0000 C   0  0  0  0  0  0  0  0  0  0  0  0
   -8.3956    2.2632    0.0000 C   0  0  0  0  0  0  0  0  0  0  0  0
   -8.1240   -0.3205    0.0000 C   0  0  0  0  0  0  0  0  0  0  0  0
   -3.6488    0.1498    0.0000 C   0  0  0  0  0  0  0  0  0  0  0  0
   -7.5140    1.0498    0.0000 C   0  0  0  0  0  0  0  0  0  0  0  0
   -1.2748   -0.3547    0.0000 C   0  0  0  0  0  0  0  0  0  0  0  0
   -2.6450   -0.9649    0.0000 C   0  0  0  0  0  0  0  0  0  0  0  0
    9.1173   -0.3547    0.0000 N   0  0  0  0  0  0  0  0  0  0  0  0
 23  1  1  0  0  0  0
 23  2  2  0  0  0  0
 24  3  2  0  0  0  0
 26  4  1  0  0  0  0
 27  5  1  0  0  0  0
  6 25  1  0  0  0  0
  7 26  2  0  0  0  0
  7 25  1  0  0  0  0
  8 25  2  0  0  0  0
  8 27  1  0  0  0  0
  9 13  1  0  0  0  0
  9 10  1  0  0  0  0
 10 14  1  0  0  0  0
 11 15  1  0  0  0  0
 11 12  1  0  0  0  0
 12 16  1  0  0  0  0
 13 19  1  0  0  0  0
 14 32  1  0  0  0  0
 15 32  1  0  0  0  0
 16 32  1  0  0  0  0
 17 21  1  0  0  0  0
 17 29  1  0  0  0  0
 28 18  2  0  0  0  0
 18 22  1  0  0  0  0
 24 19  1  0  0  0  0
 24 20  1  0  0  0  0
 30 20  1  0  0  0  0
 28 21  1  0  0  0  0
 30 22  1  0  0  0  0
 23 31  1  0  0  0  0
 26 29  1  0  0  0  0
 27 29  2  0  0  0  0
 28 31  1  0  0  0  0
 30 31  2  0  0  0  0
M  END
> <Value>
5.59999938302362

> <Relation>
<

> <SourceURI>
mol:CHEMBL253969

$$$$

Generated by Molecular Materials Informatics

 23 25  0  0  0  0  0  0  0  0999 V2000
   -0.7903    1.3271    0.0000 S   0  0  0  0  0  0  0  0  0  0  0  0
    0.2188   -1.6729    0.0000 O   0  0  0  0  0  0  0  0  0  0  0  0
    0.2188   -9.1729    0.0000 O   0  0  0  0  0  0  0  0  0  0  0  0
   -4.9772   -9.1729    0.0000 O   0  0  0  0  0  0  0  0  0  0  0  0
    0.0914    0.1135    0.0000 N   0  0  0  0  0  0  0  0  0  0  0  0
    0.0914    2.5406    0.0000 N   0  0  0  0  0  0  0  0  0  0  0  0
    2.8170   -1.6729    0.0000 N   0  0  0  0  0  0  0  0  0  0  0  0
    1.5179   -3.9229    0.0000 N   0  0  0  0  0  0  0  0  0  0  0  0
    0.2188   -4.6729    0.0000 N   0  0  0  0  0  0  0  0  0  0  0  0
    1.5179    0.5771    0.0000 C   0  0  0  0  0  0  0  0  0  0  0  0
    1.5179    2.0771    0.0000 C   0  0  0  0  0  0  0  0  0  0  0  0
    2.8170   -0.1729    0.0000 C   0  0  0  0  0  0  0  0  0  0  0  0
    2.8170    2.8271    0.0000 C   0  0  0  0  0  0  0  0  0  0  0  0
    4.1161    0.5771    0.0000 C   0  0  0  0  0  0  0  0  0  0  0  0
    4.1161    2.0771    0.0000 C   0  0  0  0  0  0  0  0  0  0  0  0
    1.5179   -2.4229    0.0000 C   0  0  0  0  0  0  0  0  0  0  0  0
   -1.0801   -6.9229    0.0000 C   0  0  0  0  0  0  0  0  0  0  0  0
   -1.0801   -8.4229    0.0000 C   0  0  0  0  0  0  0  0  0  0  0  0
   -3.6783   -8.4229    0.0000 C   0  0  0  0  0  0  0  0  0  0  0  0
   -2.3792   -9.1729    0.0000 C   0  0  0  0  0  0  0  0  0  0  0  0
   -2.3792   -6.1729    0.0000 C   0  0  0  0  0  0  0  0  0  0  0  0
    0.2188   -6.1729    0.0000 C   0  0  0  0  0  0  0  0  0  0  0  0
   -3.6783   -6.9229    0.0000 C   0  0  0  0  0  0  0  0  0  0  0  0
  1  5  1  0  0  0  0
  1  6  1  0  0  0  0
  2 16  2  0  0  0  0
  3 18  1  0  0  0  0
  4 19  1  0  0  0  0
  5 10  2  0  0  0  0
  6 11  2  0  0  0  0
  7 12  1  0  0  0  0
  7 16  1  0  0  0  0
  9  8  1  0  0  0  0
  8 16  1  0  0  0  0
  9 22  2  0  0  0  0
 10 11  1  0  0  0  0
 10 12  1  0  0  0  0
 11 13  1  0  0  0  0
 12 14  2  0  0  0  0
 13 15  2  0  0  0  0
 14 15  1  0  0  0  0
 17 18  1  0  0  0  0
 17 21  2  0  0  0  0
 17 22  1  0  0  0  0
 18 20  2  0  0  0  0
 19 20  1  0  0  0  0
 19 23  2  0  0  0  0
 21 23  1  0  0  0  0
M  END
> <Value>
6.0999990348465305

> <Relation>
=

> <SourceURI>
mol:CHEMBL1999811

$$$$

Generated by Molecular Materials Informatics

 18 20  0  0  0  0  0  0  0  0999 V2000
   -2.0763   -1.8135    0.0000 N   0  0  0  0  0  0  0  0  0  0  0  0
    0.6493   -2.1000    0.0000 N   0  0  0  0  0  0  0  0  0  0  0  0
   -2.9580   -0.6000    0.0000 N   0  0  0  0  0  0  0  0  0  0  0  0
    4.5464    1.6500    0.0000 N   0  0  0  0  0  0  0  0  0  0  0  0
   -0.6498    0.1500    0.0000 C   0  0  0  0  0  0  0  0  0  0  0  0
    0.6493    0.9000    0.0000 C   0  0  0  0  0  0  0  0  0  0  0  0
   -0.6498   -1.3500    0.0000 C   0  0  0  0  0  0  0  0  0  0  0  0
   -2.0763    0.6135    0.0000 C   0  0  0  0  0  0  0  0  0  0  0  0
    1.9482    0.1500    0.0000 C   0  0  0  0  0  0  0  0  0  0  0  0
    0.6493    2.4000    0.0000 C   0  0  0  0  0  0  0  0  0  0  0  0
    1.9482   -1.3500    0.0000 C   0  0  0  0  0  0  0  0  0  0  0  0
    3.2473    0.9000    0.0000 C   0  0  0  0  0  0  0  0  0  0  0  0
   -0.6498    3.1500    0.0000 C   0  0  0  0  0  0  0  0  0  0  0  0
    1.9482    3.1500    0.0000 C   0  0  0  0  0  0  0  0  0  0  0  0
   -2.5400    2.0402    0.0000 C   0  0  0  0  0  0  0  0  0  0  0  0
   -0.6498    4.6500    0.0000 C   0  0  0  0  0  0  0  0  0  0  0  0
    1.9482    4.6500    0.0000 C   0  0  0  0  0  0  0  0  0  0  0  0
    0.6493    5.4000    0.0000 C   0  0  0  0  0  0  0  0  0  0  0  0
  1  3  1  0  0  0  0
  1  7  1  0  0  0  0
  2  7  2  0  0  0  0
  2 11  1  0  0  0  0
  3  8  2  0  0  0  0
  4 12  3  0  0  0  0
  5  6  2  0  0  0  0
  5  7  1  0  0  0  0
  5  8  1  0  0  0  0
  6  9  1  0  0  0  0
  6 10  1  0  0  0  0
  8 15  1  0  0  0  0
  9 11  2  0  0  0  0
  9 12  1  0  0  0  0
 10 13  2  0  0  0  0
 10 14  1  0  0  0  0
 13 16  1  0  0  0  0
 14 17  2  0  0  0  0
 16 18  2  0  0  0  0
 17 18  1  0  0  0  0
M  END
> <Value>
5.899998417198648

> <Relation>
<

> <SourceURI>
mol:CHEMBL1965495

$$$$

Generated by Molecular Materials Informatics

 25 28  0  0  0  0  0  0  0  0999 V2000
   -6.0799   -1.3826    0.0000 C   0  0  0  0  0  0  0  0  0  0  0  0
   -4.7808   -2.1326    0.0000 O   0  0  0  0  0  0  0  0  0  0  0  0
   -3.4818   -1.3826    0.0000 C   0  0  0  0  0  0  0  0  0  0  0  0
   -2.1828   -2.1326    0.0000 C   0  0  0  0  0  0  0  0  0  0  0  0
   -2.1828   -3.6326    0.0000 O   0  0  0  0  0  0  0  0  0  0  0  0
   -3.4818   -4.3826    0.0000 C   0  0  0  0  0  0  0  0  0  0  0  0
   -0.8838   -1.3826    0.0000 C   0  0  0  0  0  0  0  0  0  0  0  0
   -0.8838    0.1174    0.0000 C   0  0  0  0  0  0  0  0  0  0  0  0
    0.4153    0.8674    0.0000 C   0  0  0  0  0  0  0  0  0  0  0  0
    1.7142    0.1174    0.0000 C   0  0  0  0  0  0  0  0  0  0  0  0
    3.0133    0.8674    0.0000 C   0  0  0  0  0  0  0  0  0  0  0  0
    3.0133    2.3674    0.0000 N   0  0  0  0  0  0  0  0  0  0  0  0
    4.3124    0.1174    0.0000 C   0  0  0  0  0  0  0  0  0  0  0  0
    5.6113    0.8674    0.0000 C   0  0  0  0  0  0  0  0  0  0  0  0
    4.3124   -1.3826    0.0000 C   0  0  0  0  0  0  0  0  0  0  0  0
    5.6113   -2.1326    0.0000 N   0  0  0  0  0  0  0  0  0  0  0  0
    3.0133   -2.1326    0.0000 C   0  0  0  0  0  0  0  0  0  0  0  0
    1.7142   -1.3826    0.0000 C   0  0  0  0  0  0  0  0  0  0  0  0
    0.4153    2.3674    0.0000 C   0  0  0  0  0  0  0  0  0  0  0  0
    1.7142    3.1174    0.0000 C   0  0  0  0  0  0  0  0  0  0  0  0
    1.7142    4.6174    0.0000 N   0  0  0  0  0  0  0  0  0  0  0  0
   -0.8838    3.1174    0.0000 C   0  0  0  0  0  0  0  0  0  0  0  0
   -2.1828    2.3674    0.0000 N   0  0  0  0  0  0  0  0  0  0  0  0
   -2.1828    0.8674    0.0000 C   0  0  0  0  0  0  0  0  0  0  0  0
   -3.4818    0.1174    0.0000 C   0  0  0  0  0  0  0  0  0  0  0  0
 20 21  1  0  0  0  0
 13 14  1  0  0  0  0
 20 12  2  0  0  0  0
 11 12  1  0  0  0  0
 19 20  1  0  0  0  0
 13 11  2  0  0  0  0
 15 13  1  0  0  0  0
 10 11  1  0  0  0  0
 22 19  2  0  0  0  0
  9 19  1  0  0  0  0
 22 23  1  0  0  0  0
 15 16  1  0  0  0  0
 17 15  2  0  0  0  0
 24 23  2  0  0  0  0
  9 10  1  0  0  0  0
 10 18  2  0  0  0  0
  9  8  2  0  0  0  0
  8 24  1  0  0  0  0
 25 24  1  0  0  0  0
 18 17  1  0  0  0  0
  8  7  1  0  0  0  0
  3 25  2  0  0  0  0
  7  4  2  0  0  0  0
  6  5  1  0  0  0  0
  4  3  1  0  0  0  0
  3  2  1  0  0  0  0
  4  5  1  0  0  0  0
  1  2  1  0  0  0  0
M  END
> <Value>
5.40000018605658

> <Relation>
=

> <SourceURI>
mol:CHEMBL235157

$$$$

Generated by Molecular Materials Informatics

 18 20  0  0  0  0  0  0  0  0999 V2000
    2.7279    3.4125    0.0000 Cl  0  0  0  0  0  0  0  0  0  0  0  0
   -2.4682    1.9125    0.0000 S   0  0  0  0  0  0  0  0  0  0  0  0
    5.3261   -2.5875    0.0000 O   0  0  0  0  0  0  0  0  0  0  0  0
    2.7279   -1.0875    0.0000 N   0  0  0  0  0  0  0  0  0  0  0  0
    6.6250   -0.3375    0.0000 N   0  0  0  0  0  0  0  0  0  0  0  0
    4.0270    1.1625    0.0000 C   0  0  0  0  0  0  0  0  0  0  0  0
    1.4289    1.1625    0.0000 C   0  0  0  0  0  0  0  0  0  0  0  0
    4.0270   -0.3375    0.0000 C   0  0  0  0  0  0  0  0  0  0  0  0
    2.7279    1.9125    0.0000 C   0  0  0  0  0  0  0  0  0  0  0  0
    1.4289   -0.3375    0.0000 C   0  0  0  0  0  0  0  0  0  0  0  0
    5.3261   -1.0875    0.0000 C   0  0  0  0  0  0  0  0  0  0  0  0
    0.1300    1.9125    0.0000 C   0  0  0  0  0  0  0  0  0  0  0  0
    5.3261    1.9125    0.0000 C   0  0  0  0  0  0  0  0  0  0  0  0
    0.1300   -1.0875    0.0000 C   0  0  0  0  0  0  0  0  0  0  0  0
   -1.1691    1.1625    0.0000 C   0  0  0  0  0  0  0  0  0  0  0  0
   -1.1691   -0.3375    0.0000 C   0  0  0  0  0  0  0  0  0  0  0  0
    6.6250    1.1625    0.0000 C   0  0  0  0  0  0  0  0  0  0  0  0
   -3.7671    1.1625    0.0000 C   0  0  0  0  0  0  0  0  0  0  0  0
  1  9  1  0  0  0  0
  2 15  1  0  0  0  0
  2 18  1  0  0  0  0
  3 11  2  0  0  0  0
  4  8  2  0  0  0  0
  4 10  1  0  0  0  0
  5 11  1  0  0  0  0
  5 17  1  0  0  0  0
  6  8  1  0  0  0  0
  6  9  2  0  0  0  0
  6 13  1  0  0  0  0
  7  9  1  0  0  0  0
  7 10  1  0  0  0  0
  7 12  2  0  0  0  0
  8 11  1  0  0  0  0
 10 14  2  0  0  0  0
 12 15  1  0  0  0  0
 13 17  1  0  0  0  0
 14 16  1  0  0  0  0
 15 16  2  0  0  0  0
M  END
> <Value>
6.299997602857746

> <Relation>
=

> <SourceURI>
mol:CHEMBL1985074

$$$$

Generated by Molecular Materials Informatics

 33 36  0  0  0  0  0  0  0  0999 V2000
   -3.3125  -10.3687    0.0000 S   0  0  0  0  0  0  0  0  0  0  0  0
    0.5846    5.3811    0.0000 O   0  0  0  0  0  0  0  0  0  0  0  0
   -4.0624   -9.0696    0.0000 O   0  0  0  0  0  0  0  0  0  0  0  0
   -2.5625  -11.6677    0.0000 O   0  0  0  0  0  0  0  0  0  0  0  0
   -2.0134   -5.1187    0.0000 O   0  0  0  0  0  0  0  0  0  0  0  0
   -0.7145    1.6312    0.0000 N   0  0  0  0  0  0  0  0  0  0  0  0
   -0.7145    3.1311    0.0000 N   0  0  0  0  0  0  0  0  0  0  0  0
    0.5846   -5.1187    0.0000 N   0  0  0  0  0  0  0  0  0  0  0  0
   -4.6115  -11.1187    0.0000 N   0  0  0  0  0  0  0  0  0  0  0  0
   -5.9106  -14.8686    0.0000 N   0  0  0  0  0  0  0  0  0  0  0  0
    1.8836    1.6312    0.0000 C   0  0  0  0  0  0  0  0  0  0  0  0
    0.5846    0.8812    0.0000 C   0  0  0  0  0  0  0  0  0  0  0  0
    1.8836    3.1311    0.0000 C   0  0  0  0  0  0  0  0  0  0  0  0
    0.5846   -0.6188    0.0000 C   0  0  0  0  0  0  0  0  0  0  0  0
    0.5846    3.8811    0.0000 C   0  0  0  0  0  0  0  0  0  0  0  0
   -2.0134   -9.6187    0.0000 C   0  0  0  0  0  0  0  0  0  0  0  0
   -0.7145   -7.3687    0.0000 C   0  0  0  0  0  0  0  0  0  0  0  0
    3.1825    0.8812    0.0000 C   0  0  0  0  0  0  0  0  0  0  0  0
   -2.0134   -8.1187    0.0000 C   0  0  0  0  0  0  0  0  0  0  0  0
    3.1825    3.8811    0.0000 C   0  0  0  0  0  0  0  0  0  0  0  0
    0.5846   -3.6188    0.0000 C   0  0  0  0  0  0  0  0  0  0  0  0
    1.8836   -1.3688    0.0000 C   0  0  0  0  0  0  0  0  0  0  0  0
   -0.7145   -1.3688    0.0000 C   0  0  0  0  0  0  0  0  0  0  0  0
   -0.7145   -5.8687    0.0000 C   0  0  0  0  0  0  0  0  0  0  0  0
   -0.7145  -10.3687    0.0000 C   0  0  0  0  0  0  0  0  0  0  0  0
    1.8836   -2.8688    0.0000 C   0  0  0  0  0  0  0  0  0  0  0  0
   -0.7145   -2.8688    0.0000 C   0  0  0  0  0  0  0  0  0  0  0  0
    0.5846   -8.1187    0.0000 C   0  0  0  0  0  0  0  0  0  0  0  0
    4.4816    1.6312    0.0000 C   0  0  0  0  0  0  0  0  0  0  0  0
    4.4816    3.1311    0.0000 C   0  0  0  0  0  0  0  0  0  0  0  0
    0.5846   -9.6187    0.0000 C   0  0  0  0  0  0  0  0  0  0  0  0
   -4.6115  -12.6186    0.0000 C   0  0  0  0  0  0  0  0  0  0  0  0
   -5.9106  -13.3686    0.0000 C   0  0  0  0  0  0  0  0  0  0  0  0
  1  3  2  0  0  0  0
  1  4  2  0  0  0  0
  1  9  1  0  0  0  0
  1 16  1  0  0  0  0
  2 15  2  0  0  0  0
  5 24  2  0  0  0  0
  6  7  1  0  0  0  0
  6 12  2  0  0  0  0
  7 15  1  0  0  0  0
  8 21  1  0  0  0  0
  8 24  1  0  0  0  0
  9 32  1  0  0  0  0
 10 33  1  0  0  0  0
 11 12  1  0  0  0  0
 11 13  1  0  0  0  0
 11 18  2  0  0  0  0
 12 14  1  0  0  0  0
 13 15  1  0  0  0  0
 13 20  2  0  0  0  0
 14 22  2  0  0  0  0
 14 23  1  0  0  0  0
 16 19  1  0  0  0  0
 16 25  2  0  0  0  0
 17 19  2  0  0  0  0
 17 24  1  0  0  0  0
 17 28  1  0  0  0  0
 18 29  1  0  0  0  0
 20 30  1  0  0  0  0
 21 26  2  0  0  0  0
 21 27  1  0  0  0  0
 22 26  1  0  0  0  0
 23 27  2  0  0  0  0
 25 31  1  0  0  0  0
 28 31  2  0  0  0  0
 29 30  2  0  0  0  0
 32 33  1  0  0  0  0
M  END
> <Value>
5.899998417198648

> <Relation>
<

> <SourceURI>
mol:CHEMBL2000481

$$$$

Generated by Molecular Materials Informatics

 29 34  0  0  0  0  0  0  0  0999 V2000
    7.6395    1.3675    0.0000 S   0  0  0  0  0  0  0  0  0  0  0  0
   -0.4068   -4.2446    0.0000 F   0  0  0  0  0  0  0  0  0  0  0  0
    5.2655    1.8720    0.0000 N   0  0  0  0  0  0  0  0  0  0  0  0
    5.5192   -0.5418    0.0000 N   0  0  0  0  0  0  0  0  0  0  0  0
   -1.4284    1.5484    0.0000 N   0  0  0  0  0  0  0  0  0  0  0  0
   -1.4284    3.9755    0.0000 N   0  0  0  0  0  0  0  0  0  0  0  0
   -3.8100    2.7618    0.0000 N   0  0  0  0  0  0  0  0  0  0  0  0
    3.8952    1.2619    0.0000 C   0  0  0  0  0  0  0  0  0  0  0  0
    4.0521   -0.2298    0.0000 C   0  0  0  0  0  0  0  0  0  0  0  0
    2.5963    2.0118    0.0000 C   0  0  0  0  0  0  0  0  0  0  0  0
    6.2692    0.7573    0.0000 C   0  0  0  0  0  0  0  0  0  0  0  0
   -0.0018    2.0118    0.0000 C   0  0  0  0  0  0  0  0  0  0  0  0
   -0.0018    3.5118    0.0000 C   0  0  0  0  0  0  0  0  0  0  0  0
    1.2972    1.2619    0.0000 C   0  0  0  0  0  0  0  0  0  0  0  0
    2.9374   -1.2336    0.0000 C   0  0  0  0  0  0  0  0  0  0  0  0
    2.5963    3.5118    0.0000 C   0  0  0  0  0  0  0  0  0  0  0  0
   -2.3100    2.7618    0.0000 C   0  0  0  0  0  0  0  0  0  0  0  0
    6.0155    3.1711    0.0000 C   0  0  0  0  0  0  0  0  0  0  0  0
    1.2972    4.2618    0.0000 C   0  0  0  0  0  0  0  0  0  0  0  0
    7.4828    2.8591    0.0000 C   0  0  0  0  0  0  0  0  0  0  0  0
   -1.8918    0.1219    0.0000 C   0  0  0  0  0  0  0  0  0  0  0  0
    3.2492   -2.7006    0.0000 C   0  0  0  0  0  0  0  0  0  0  0  0
    1.5107   -0.7699    0.0000 C   0  0  0  0  0  0  0  0  0  0  0  0
   -3.3591   -0.1899    0.0000 C   0  0  0  0  0  0  0  0  0  0  0  0
   -4.4738   -1.1937    0.0000 C   0  0  0  0  0  0  0  0  0  0  0  0
   -4.7856    0.2735    0.0000 C   0  0  0  0  0  0  0  0  0  0  0  0
    2.1345   -3.7044    0.0000 C   0  0  0  0  0  0  0  0  0  0  0  0
    0.3961   -1.7737    0.0000 C   0  0  0  0  0  0  0  0  0  0  0  0
    0.7080   -3.2408    0.0000 C   0  0  0  0  0  0  0  0  0  0  0  0
  1 11  1  0  0  0  0
  1 20  1  0  0  0  0
  2 29  1  0  0  0  0
  3  8  1  0  0  0  0
  3 11  1  0  0  0  0
  3 18  1  0  0  0  0
  4  9  1  0  0  0  0
  4 11  2  0  0  0  0
  5 12  1  0  0  0  0
  5 17  1  0  0  0  0
  5 21  1  0  0  0  0
  6 13  1  0  0  0  0
  6 17  2  0  0  0  0
  7 17  1  0  0  0  0
  8  9  2  0  0  0  0
  8 10  1  0  0  0  0
  9 15  1  0  0  0  0
 10 14  1  0  0  0  0
 10 16  2  0  0  0  0
 12 13  1  0  0  0  0
 12 14  2  0  0  0  0
 13 19  2  0  0  0  0
 15 22  2  0  0  0  0
 15 23  1  0  0  0  0
 16 19  1  0  0  0  0
 18 20  2  0  0  0  0
 21 24  1  0  0  0  0
 22 27  1  0  0  0  0
 23 28  2  0  0  0  0
 24 25  1  0  0  0  0
 24 26  1  0  0  0  0
 25 26  1  0  0  0  0
 27 29  2  0  0  0  0
 28 29  1  0  0  0  0
M  END
> <Value>
5.899998417198648

> <Relation>
<

> <SourceURI>
mol:CHEMBL1982874

$$$$

Generated by Molecular Materials Informatics

 36 40  0  0  0  0  0  0  0  0999 V2000
    1.4684   -3.0881    0.0000 O   0  0  0  0  0  0  0  0  0  0  0  0
    2.9684   -3.0881    0.0000 O   0  0  0  0  0  0  0  0  0  0  0  0
    3.2720   -9.9081    0.0000 N   0  0  0  0  0  0  0  0  0  0  0  0
    2.9684   -5.6860    0.0000 N   0  0  0  0  0  0  0  0  0  0  0  0
   -1.5315   -0.4901    0.0000 N   0  0  0  0  0  0  0  0  0  0  0  0
    2.9684    7.3040    0.0000 N   0  0  0  0  0  0  0  0  0  0  0  0
    5.9683   -3.0881    0.0000 N   0  0  0  0  0  0  0  0  0  0  0  0
    0.8585   -9.6544    0.0000 C   0  0  0  0  0  0  0  0  0  0  0  0
    1.4684   -8.2841    0.0000 C   0  0  0  0  0  0  0  0  0  0  0  0
    1.9730  -10.6580    0.0000 C   0  0  0  0  0  0  0  0  0  0  0  0
    1.4684    2.1080    0.0000 C   0  0  0  0  0  0  0  0  0  0  0  0
    0.7185    0.8089    0.0000 C   0  0  0  0  0  0  0  0  0  0  0  0
    1.4684    4.7059    0.0000 C   0  0  0  0  0  0  0  0  0  0  0  0
    2.9684    4.7059    0.0000 C   0  0  0  0  0  0  0  0  0  0  0  0
    2.9602   -8.4408    0.0000 C   0  0  0  0  0  0  0  0  0  0  0  0
    0.7185   -6.9851    0.0000 C   0  0  0  0  0  0  0  0  0  0  0  0
    0.7185    3.4070    0.0000 C   0  0  0  0  0  0  0  0  0  0  0  0
    1.4684   -5.6860    0.0000 C   0  0  0  0  0  0  0  0  0  0  0  0
   -0.5682  -10.1179    0.0000 C   0  0  0  0  0  0  0  0  0  0  0  0
    0.7185   -1.7890    0.0000 C   0  0  0  0  0  0  0  0  0  0  0  0
    1.4684   -0.4901    0.0000 C   0  0  0  0  0  0  0  0  0  0  0  0
    2.9684    2.1080    0.0000 C   0  0  0  0  0  0  0  0  0  0  0  0
    1.6612  -12.1253    0.0000 C   0  0  0  0  0  0  0  0  0  0  0  0
    3.7184    3.4070    0.0000 C   0  0  0  0  0  0  0  0  0  0  0  0
   -0.7815    0.8089    0.0000 C   0  0  0  0  0  0  0  0  0  0  0  0
    0.7185    6.0050    0.0000 C   0  0  0  0  0  0  0  0  0  0  0  0
    0.7185   -4.3871    0.0000 C   0  0  0  0  0  0  0  0  0  0  0  0
   -0.8800  -11.5851    0.0000 C   0  0  0  0  0  0  0  0  0  0  0  0
    3.7184    6.0050    0.0000 C   0  0  0  0  0  0  0  0  0  0  0  0
    0.2347  -12.5887    0.0000 C   0  0  0  0  0  0  0  0  0  0  0  0
   -0.7815   -1.7890    0.0000 C   0  0  0  0  0  0  0  0  0  0  0  0
    1.4684    7.3040    0.0000 C   0  0  0  0  0  0  0  0  0  0  0  0
    3.7184   -4.3871    0.0000 C   0  0  0  0  0  0  0  0  0  0  0  0
    5.2183   -4.3871    0.0000 C   0  0  0  0  0  0  0  0  0  0  0  0
    5.2183   -1.7890    0.0000 C   0  0  0  0  0  0  0  0  0  0  0  0
    7.4683   -3.0881    0.0000 C   0  0  0  0  0  0  0  0  0  0  0  0
  1 20  1  0  0  0  0
  1 27  1  0  0  0  0
  2 33  2  0  0  0  0
  3 10  1  0  0  0  0
  3 15  1  0  0  0  0
  4 18  1  0  0  0  0
  4 33  1  0  0  0  0
  5 25  2  0  0  0  0
  5 31  1  0  0  0  0
  6 29  2  0  0  0  0
  6 32  1  0  0  0  0
  7 34  1  0  0  0  0
  7 35  1  0  0  0  0
  7 36  1  0  0  0  0
  8  9  1  0  0  0  0
  8 10  1  0  0  0  0
  8 19  2  0  0  0  0
  9 15  2  0  0  0  0
  9 16  1  0  0  0  0
 10 23  2  0  0  0  0
 11 12  1  0  0  0  0
 11 17  1  0  0  0  0
 11 22  2  0  0  0  0
 12 21  2  0  0  0  0
 12 25  1  0  0  0  0
 13 14  1  0  0  0  0
 13 17  2  0  0  0  0
 13 26  1  0  0  0  0
 14 24  2  0  0  0  0
 14 29  1  0  0  0  0
 16 18  1  0  0  0  0
 18 27  1  0  0  0  0
 19 28  1  0  0  0  0
 20 21  1  0  0  0  0
 20 31  2  0  0  0  0
 22 24  1  0  0  0  0
 23 30  1  0  0  0  0
 26 32  2  0  0  0  0
 28 30  2  0  0  0  0
 33 34  1  0  0  0  0
M  END
> <Value>
5.899998417198648

> <Relation>
<

> <SourceURI>
mol:CHEMBL1991725

$$$$

Generated by Molecular Materials Informatics

 27 30  0  0  0  0  0  0  0  0999 V2000
   -0.7376   -4.7802    0.0000 S   0  0  0  0  0  0  0  0  0  0  0  0
    4.5862    3.9333    0.0000 O   0  0  0  0  0  0  0  0  0  0  0  0
   -1.6192   -3.5666    0.0000 N   0  0  0  0  0  0  0  0  0  0  0  0
    1.9880    3.9333    0.0000 N   0  0  0  0  0  0  0  0  0  0  0  0
    3.2871    6.1833    0.0000 N   0  0  0  0  0  0  0  0  0  0  0  0
    0.6890   -2.8166    0.0000 C   0  0  0  0  0  0  0  0  0  0  0  0
    1.9880   -2.0666    0.0000 C   0  0  0  0  0  0  0  0  0  0  0  0
    0.6890   -4.3165    0.0000 C   0  0  0  0  0  0  0  0  0  0  0  0
    1.9880   -0.5666    0.0000 C   0  0  0  0  0  0  0  0  0  0  0  0
   -0.7376   -2.3531    0.0000 C   0  0  0  0  0  0  0  0  0  0  0  0
    3.2871   -2.8166    0.0000 C   0  0  0  0  0  0  0  0  0  0  0  0
    1.9880   -5.0665    0.0000 C   0  0  0  0  0  0  0  0  0  0  0  0
    0.6890    0.1834    0.0000 C   0  0  0  0  0  0  0  0  0  0  0  0
    3.2871    0.1834    0.0000 C   0  0  0  0  0  0  0  0  0  0  0  0
    1.9880    2.4334    0.0000 C   0  0  0  0  0  0  0  0  0  0  0  0
    3.2871   -4.3165    0.0000 C   0  0  0  0  0  0  0  0  0  0  0  0
    0.6890    1.6834    0.0000 C   0  0  0  0  0  0  0  0  0  0  0  0
    3.2871    1.6834    0.0000 C   0  0  0  0  0  0  0  0  0  0  0  0
    4.5862    6.9333    0.0000 C   0  0  0  0  0  0  0  0  0  0  0  0
    3.2871    4.6833    0.0000 C   0  0  0  0  0  0  0  0  0  0  0  0
    4.5862    8.4333    0.0000 C   0  0  0  0  0  0  0  0  0  0  0  0
    5.8851    6.1833    0.0000 C   0  0  0  0  0  0  0  0  0  0  0  0
    5.8851    9.1833    0.0000 C   0  0  0  0  0  0  0  0  0  0  0  0
    7.1841    6.9333    0.0000 C   0  0  0  0  0  0  0  0  0  0  0  0
    7.1841    8.4333    0.0000 C   0  0  0  0  0  0  0  0  0  0  0  0
    5.8851   10.6832    0.0000 C   0  0  0  0  0  0  0  0  0  0  0  0
    8.4832    6.1833    0.0000 C   0  0  0  0  0  0  0  0  0  0  0  0
  1  3  1  0  0  0  0
  1  8  1  0  0  0  0
  2 20  2  0  0  0  0
  3 10  2  0  0  0  0
  4 15  1  0  0  0  0
  4 20  1  0  0  0  0
  5 19  1  0  0  0  0
  5 20  1  0  0  0  0
  6  7  1  0  0  0  0
  6  8  2  0  0  0  0
  6 10  1  0  0  0  0
  7  9  1  0  0  0  0
  7 11  2  0  0  0  0
  8 12  1  0  0  0  0
  9 13  2  0  0  0  0
  9 14  1  0  0  0  0
 11 16  1  0  0  0  0
 12 16  2  0  0  0  0
 13 17  1  0  0  0  0
 14 18  2  0  0  0  0
 15 17  2  0  0  0  0
 15 18  1  0  0  0  0
 19 21  2  0  0  0  0
 19 22  1  0  0  0  0
 21 23  1  0  0  0  0
 22 24  2  0  0  0  0
 23 25  2  0  0  0  0
 23 26  1  0  0  0  0
 24 25  1  0  0  0  0
 24 27  1  0  0  0  0
M  END
> <Value>
5.899998417198648

> <Relation>
<

> <SourceURI>
mol:CHEMBL1992242

$$$$

Generated by Molecular Materials Informatics

 30 33  0  0  0  0  0  0  0  0999 V2000
   -4.6828    1.5962    0.0000 Cl  0  0  0  0  0  0  0  0  0  0  0  0
    0.8758    9.7111    0.0000 O   0  0  0  0  0  0  0  0  0  0  0  0
   -0.2811    0.6608    0.0000 N   0  0  0  0  0  0  0  0  0  0  0  0
   -0.8213   -4.3076    0.0000 N   0  0  0  0  0  0  0  0  0  0  0  0
    1.9043   -4.5942    0.0000 N   0  0  0  0  0  0  0  0  0  0  0  0
   -2.2118    2.3991    0.0000 N   0  0  0  0  0  0  0  0  0  0  0  0
    0.2591    3.2020    0.0000 N   0  0  0  0  0  0  0  0  0  0  0  0
   -1.5951    8.9084    0.0000 N   0  0  0  0  0  0  0  0  0  0  0  0
   -0.0513   12.5644    0.0000 N   0  0  0  0  0  0  0  0  0  0  0  0
   -0.8213   -1.8807    0.0000 C   0  0  0  0  0  0  0  0  0  0  0  0
    0.6053   -2.3442    0.0000 C   0  0  0  0  0  0  0  0  0  0  0  0
   -1.2849   -0.4540    0.0000 C   0  0  0  0  0  0  0  0  0  0  0  0
    0.6053   -3.8442    0.0000 C   0  0  0  0  0  0  0  0  0  0  0  0
   -1.7029   -3.0942    0.0000 C   0  0  0  0  0  0  0  0  0  0  0  0
   -0.7448    2.0873    0.0000 C   0  0  0  0  0  0  0  0  0  0  0  0
   -2.7520   -0.1422    0.0000 C   0  0  0  0  0  0  0  0  0  0  0  0
    1.9043   -1.5942    0.0000 C   0  0  0  0  0  0  0  0  0  0  0  0
   -3.2157    1.2844    0.0000 C   0  0  0  0  0  0  0  0  0  0  0  0
   -0.2046    4.6286    0.0000 C   0  0  0  0  0  0  0  0  0  0  0  0
    3.2033   -2.3442    0.0000 C   0  0  0  0  0  0  0  0  0  0  0  0
    3.2033   -3.8442    0.0000 C   0  0  0  0  0  0  0  0  0  0  0  0
   -1.6717    4.9404    0.0000 C   0  0  0  0  0  0  0  0  0  0  0  0
    0.7993    5.7433    0.0000 C   0  0  0  0  0  0  0  0  0  0  0  0
   -1.1317    7.4817    0.0000 C   0  0  0  0  0  0  0  0  0  0  0  0
   -2.1353    6.3669    0.0000 C   0  0  0  0  0  0  0  0  0  0  0  0
    0.3356    7.1699    0.0000 C   0  0  0  0  0  0  0  0  0  0  0  0
   -0.5915   10.0231    0.0000 C   0  0  0  0  0  0  0  0  0  0  0  0
   -1.0549   11.4497    0.0000 C   0  0  0  0  0  0  0  0  0  0  0  0
   -0.5147   13.9910    0.0000 C   0  0  0  0  0  0  0  0  0  0  0  0
    1.4160   12.2524    0.0000 C   0  0  0  0  0  0  0  0  0  0  0  0
  1 18  1  0  0  0  0
  2 27  2  0  0  0  0
  3 12  2  0  0  0  0
  3 15  1  0  0  0  0
  4 13  1  0  0  0  0
  4 14  1  0  0  0  0
  5 13  2  0  0  0  0
  5 21  1  0  0  0  0
  6 15  2  0  0  0  0
  6 18  1  0  0  0  0
  7 15  1  0  0  0  0
  7 19  1  0  0  0  0
  8 24  1  0  0  0  0
  8 27  1  0  0  0  0
  9 28  1  0  0  0  0
  9 29  1  0  0  0  0
  9 30  1  0  0  0  0
 10 11  1  0  0  0  0
 10 12  1  0  0  0  0
 10 14  2  0  0  0  0
 11 13  1  0  0  0  0
 11 17  2  0  0  0  0
 12 16  1  0  0  0  0
 16 18  2  0  0  0  0
 17 20  1  0  0  0  0
 19 22  1  0  0  0  0
 19 23  1  0  0  0  0
 20 21  2  0  0  0  0
 22 25  1  0  0  0  0
 23 26  1  0  0  0  0
 24 25  1  0  0  0  0
 24 26  1  0  0  0  0
 27 28  1  0  0  0  0
M  END
> <Value>
6.599997654072044

> <Relation>
=

> <SourceURI>
mol:CHEMBL1982271

$$$$

Generated by Molecular Materials Informatics

 27 29  0  0  0  0  0  0  0  0999 V2000
    2.8255    0.1687    0.0000 O   0  0  0  0  0  0  0  0  0  0  0  0
    8.0215    6.1686    0.0000 O   0  0  0  0  0  0  0  0  0  0  0  0
    5.4236    0.1687    0.0000 N   0  0  0  0  0  0  0  0  0  0  0  0
    4.1245   -9.5810    0.0000 N   0  0  0  0  0  0  0  0  0  0  0  0
    4.1245   -2.0812    0.0000 C   0  0  0  0  0  0  0  0  0  0  0  0
    4.1245   -5.0811    0.0000 C   0  0  0  0  0  0  0  0  0  0  0  0
    4.1245   -0.5812    0.0000 C   0  0  0  0  0  0  0  0  0  0  0  0
    6.7224    2.4187    0.0000 C   0  0  0  0  0  0  0  0  0  0  0  0
    5.4236    1.6687    0.0000 C   0  0  0  0  0  0  0  0  0  0  0  0
    4.1245   -6.5811    0.0000 C   0  0  0  0  0  0  0  0  0  0  0  0
    5.4236   -2.8312    0.0000 C   0  0  0  0  0  0  0  0  0  0  0  0
    2.8255   -2.8312    0.0000 C   0  0  0  0  0  0  0  0  0  0  0  0
    5.4236   -4.3311    0.0000 C   0  0  0  0  0  0  0  0  0  0  0  0
    2.8255   -4.3311    0.0000 C   0  0  0  0  0  0  0  0  0  0  0  0
    6.7224    3.9186    0.0000 C   0  0  0  0  0  0  0  0  0  0  0  0
    8.0215    4.6686    0.0000 C   0  0  0  0  0  0  0  0  0  0  0  0
    8.0215    1.6687    0.0000 C   0  0  0  0  0  0  0  0  0  0  0  0
    2.8255   -7.3310    0.0000 C   0  0  0  0  0  0  0  0  0  0  0  0
    5.4236   -7.3310    0.0000 C   0  0  0  0  0  0  0  0  0  0  0  0
    9.3205    3.9186    0.0000 C   0  0  0  0  0  0  0  0  0  0  0  0
    9.3205    2.4187    0.0000 C   0  0  0  0  0  0  0  0  0  0  0  0
    4.1245    2.4187    0.0000 C   0  0  0  0  0  0  0  0  0  0  0  0
    2.8255   -8.8310    0.0000 C   0  0  0  0  0  0  0  0  0  0  0  0
    5.4236   -8.8310    0.0000 C   0  0  0  0  0  0  0  0  0  0  0  0
    6.7224    6.9185    0.0000 C   0  0  0  0  0  0  0  0  0  0  0  0
    6.7224    8.4185    0.0000 C   0  0  0  0  0  0  0  0  0  0  0  0
    5.4236    9.1685    0.0000 C   0  0  0  0  0  0  0  0  0  0  0  0
  1  7  2  0  0  0  0
  2 16  1  0  0  0  0
  2 25  1  0  0  0  0
  3  7  1  0  0  0  0
  3  9  1  0  0  0  0
  4 23  2  0  0  0  0
  4 24  1  0  0  0  0
  5  7  1  0  0  0  0
  5 11  2  0  0  0  0
  5 12  1  0  0  0  0
  6 10  1  0  0  0  0
  6 13  2  0  0  0  0
  6 14  1  0  0  0  0
  8  9  1  0  0  0  0
  8 15  2  0  0  0  0
  8 17  1  0  0  0  0
  9 22  1  0  0  0  0
 10 18  2  0  0  0  0
 10 19  1  0  0  0  0
 11 13  1  0  0  0  0
 12 14  2  0  0  0  0
 15 16  1  0  0  0  0
 16 20  2  0  0  0  0
 17 21  2  0  0  0  0
 18 23  1  0  0  0  0
 19 24  2  0  0  0  0
 20 21  1  0  0  0  0
 25 26  1  0  0  0  0
 26 27  1  0  0  0  0
M  END
> <Value>
5.899998417198648

> <Relation>
<

> <SourceURI>
mol:CHEMBL2007296

$$$$

Generated by Molecular Materials Informatics

 24 26  0  0  0  0  0  0  0  0999 V2000
    0.6821   -0.5625    0.0000 O   0  0  0  0  0  0  0  0  0  0  0  0
    5.8781    5.4373    0.0000 O   0  0  0  0  0  0  0  0  0  0  0  0
    3.2802   -5.0624    0.0000 N   0  0  0  0  0  0  0  0  0  0  0  0
    0.6821   -5.0624    0.0000 N   0  0  0  0  0  0  0  0  0  0  0  0
    3.2802   -0.5625    0.0000 N   0  0  0  0  0  0  0  0  0  0  0  0
    1.9811  -10.3122    0.0000 N   0  0  0  0  0  0  0  0  0  0  0  0
    1.9811   -5.8124    0.0000 C   0  0  0  0  0  0  0  0  0  0  0  0
    1.9811   -2.8125    0.0000 C   0  0  0  0  0  0  0  0  0  0  0  0
    1.9811   -7.3123    0.0000 C   0  0  0  0  0  0  0  0  0  0  0  0
    1.9811   -1.3125    0.0000 C   0  0  0  0  0  0  0  0  0  0  0  0
    3.2802   -3.5625    0.0000 C   0  0  0  0  0  0  0  0  0  0  0  0
    0.6821   -3.5625    0.0000 C   0  0  0  0  0  0  0  0  0  0  0  0
    0.6821   -8.0623    0.0000 C   0  0  0  0  0  0  0  0  0  0  0  0
    3.2802   -8.0623    0.0000 C   0  0  0  0  0  0  0  0  0  0  0  0
    4.5790    1.6874    0.0000 C   0  0  0  0  0  0  0  0  0  0  0  0
    3.2802    0.9374    0.0000 C   0  0  0  0  0  0  0  0  0  0  0  0
    4.5790    3.1873    0.0000 C   0  0  0  0  0  0  0  0  0  0  0  0
    5.8781    3.9373    0.0000 C   0  0  0  0  0  0  0  0  0  0  0  0
    0.6821   -9.5623    0.0000 C   0  0  0  0  0  0  0  0  0  0  0  0
    3.2802   -9.5623    0.0000 C   0  0  0  0  0  0  0  0  0  0  0  0
    5.8781    0.9374    0.0000 C   0  0  0  0  0  0  0  0  0  0  0  0
    7.1771    3.1873    0.0000 C   0  0  0  0  0  0  0  0  0  0  0  0
    7.1771    1.6874    0.0000 C   0  0  0  0  0  0  0  0  0  0  0  0
    4.5790    6.1872    0.0000 C   0  0  0  0  0  0  0  0  0  0  0  0
  1 10  2  0  0  0  0
  2 18  1  0  0  0  0
  2 24  1  0  0  0  0
  3  7  1  0  0  0  0
  3 11  2  0  0  0  0
  4  7  2  0  0  0  0
  4 12  1  0  0  0  0
  5 10  1  0  0  0  0
  5 16  1  0  0  0  0
  6 19  2  0  0  0  0
  6 20  1  0  0  0  0
  7  9  1  0  0  0  0
  8 10  1  0  0  0  0
  8 11  1  0  0  0  0
  8 12  2  0  0  0  0
  9 13  2  0  0  0  0
  9 14  1  0  0  0  0
 13 19  1  0  0  0  0
 14 20  2  0  0  0  0
 15 16  1  0  0  0  0
 15 17  2  0  0  0  0
 15 21  1  0  0  0  0
 17 18  1  0  0  0  0
 18 22  2  0  0  0  0
 21 23  2  0  0  0  0
 22 23  1  0  0  0  0
M  END
> <Value>
5.300000202445418

> <Relation>
<

> <SourceURI>
mol:CHEMBL2004159

$$$$

Generated by Molecular Materials Informatics

 26 29  0  0  0  0  0  0  0  0999 V2000
   -4.6349  -14.1310    0.0000 N   0  0  0  0  0  0  0  0  0  0  0  0
   -4.6373  -15.6359    0.0000 C   0  0  0  0  0  0  0  0  0  0  0  0
   -3.3409  -16.3868    0.0000 N   0  0  0  0  0  0  0  0  0  0  0  0
   -2.0332  -15.6350    0.0000 C   0  0  0  0  0  0  0  0  0  0  0  0
   -2.0386  -14.1239    0.0000 C   0  0  0  0  0  0  0  0  0  0  0  0
   -3.3446  -13.3807    0.0000 C   0  0  0  0  0  0  0  0  0  0  0  0
   -0.7332  -16.3837    0.0000 N   0  0  0  0  0  0  0  0  0  0  0  0
    0.5651  -15.6324    0.0000 C   0  0  0  0  0  0  0  0  0  0  0  0
    1.8605  -16.3904    0.0000 C   0  0  0  0  0  0  0  0  0  0  0  0
    3.1580  -15.6404    0.0000 C   0  0  0  0  0  0  0  0  0  0  0  0
    3.1574  -14.1388    0.0000 C   0  0  0  0  0  0  0  0  0  0  0  0
    1.8485  -13.3903    0.0000 C   0  0  0  0  0  0  0  0  0  0  0  0
    0.5564  -14.1445    0.0000 C   0  0  0  0  0  0  0  0  0  0  0  0
    1.8565  -17.8903    0.0000 C   0  0  0  0  0  0  0  0  0  0  0  0
    0.5555  -18.6369    0.0000 O   0  0  0  0  0  0  0  0  0  0  0  0
    3.1536  -18.6438    0.0000 O   0  0  0  0  0  0  0  0  0  0  0  0
   -5.9374  -16.3840    0.0000 N   0  0  0  0  0  0  0  0  0  0  0  0
   -5.9396  -17.8842    0.0000 C   0  0  0  0  0  0  0  0  0  0  0  0
   -7.2421  -18.6267    0.0000 C   0  0  0  0  0  0  0  0  0  0  0  0
   -4.6414  -20.1225    0.0000 C   0  0  0  0  0  0  0  0  0  0  0  0
   -4.6451  -18.6265    0.0000 C   0  0  0  0  0  0  0  0  0  0  0  0
   -5.9459  -20.8788    0.0000 C   0  0  0  0  0  0  0  0  0  0  0  0
   -7.2428  -20.1295    0.0000 C   0  0  0  0  0  0  0  0  0  0  0  0
   -8.3561  -21.1311    0.0000 C   0  0  0  0  0  0  0  0  0  0  0  0
   -7.7475  -22.4998    0.0000 N   0  0  0  0  0  0  0  0  0  0  0  0
   -6.2579  -22.3435    0.0000 N   0  0  0  0  0  0  0  0  0  0  0  0
 12 13  2  0  0  0  0
 13  8  1  0  0  0  0
  1  2  2  0  0  0  0
  9 14  1  0  0  0  0
  4  7  1  0  0  0  0
 14 15  1  0  0  0  0
  3  4  2  0  0  0  0
 14 16  2  0  0  0  0
  7  8  1  0  0  0  0
  2 17  1  0  0  0  0
 17 18  1  0  0  0  0
  8  9  2  0  0  0  0
 18 19  2  0  0  0  0
 19 23  1  0  0  0  0
  4  5  1  0  0  0  0
 22 20  1  0  0  0  0
  9 10  1  0  0  0  0
 20 21  2  0  0  0  0
 21 18  1  0  0  0  0
 22 23  2  0  0  0  0
  2  3  1  0  0  0  0
 10 11  2  0  0  0  0
  5  6  2  0  0  0  0
 11 12  1  0  0  0  0
  6  1  1  0  0  0  0
 23 24  1  0  0  0  0
 24 25  2  0  0  0  0
 25 26  1  0  0  0  0
 26 22  1  0  0  0  0
M  END
> <Value>
7.0

> <Relation>
=

> <SourceURI>
mol:CHEMBL396523

$$$$

Generated by Molecular Materials Informatics

 30 33  0  0  0  0  0  0  0  0999 V2000
   -3.7670    1.6874    0.0000 Cl  0  0  0  0  0  0  0  0  0  0  0  0
    5.3260   -0.5625    0.0000 O   0  0  0  0  0  0  0  0  0  0  0  0
    1.4289    1.6874    0.0000 O   0  0  0  0  0  0  0  0  0  0  0  0
    6.6249   -4.3124    0.0000 N   0  0  0  0  0  0  0  0  0  0  0  0
    2.7279   -0.5625    0.0000 C   0  0  0  0  0  0  0  0  0  0  0  0
    1.4289   -1.3125    0.0000 C   0  0  0  0  0  0  0  0  0  0  0  0
    4.0270   -1.3125    0.0000 C   0  0  0  0  0  0  0  0  0  0  0  0
    2.7279   -3.5625    0.0000 C   0  0  0  0  0  0  0  0  0  0  0  0
    4.0270   -2.8125    0.0000 C   0  0  0  0  0  0  0  0  0  0  0  0
    1.4289   -2.8125    0.0000 C   0  0  0  0  0  0  0  0  0  0  0  0
    2.7279    0.9374    0.0000 C   0  0  0  0  0  0  0  0  0  0  0  0
    0.1300   -0.5625    0.0000 C   0  0  0  0  0  0  0  0  0  0  0  0
    2.7279   -5.0624    0.0000 C   0  0  0  0  0  0  0  0  0  0  0  0
    4.0270    1.6874    0.0000 C   0  0  0  0  0  0  0  0  0  0  0  0
    5.3260   -3.5625    0.0000 C   0  0  0  0  0  0  0  0  0  0  0  0
   -1.1691   -1.3125    0.0000 C   0  0  0  0  0  0  0  0  0  0  0  0
    0.1300    0.9374    0.0000 C   0  0  0  0  0  0  0  0  0  0  0  0
    4.0270   -5.8124    0.0000 C   0  0  0  0  0  0  0  0  0  0  0  0
    1.4289   -5.8124    0.0000 C   0  0  0  0  0  0  0  0  0  0  0  0
    4.0270    3.1873    0.0000 C   0  0  0  0  0  0  0  0  0  0  0  0
    5.3260    0.9374    0.0000 C   0  0  0  0  0  0  0  0  0  0  0  0
   -2.4681   -0.5625    0.0000 C   0  0  0  0  0  0  0  0  0  0  0  0
   -1.1691    1.6874    0.0000 C   0  0  0  0  0  0  0  0  0  0  0  0
   -2.4681    0.9374    0.0000 C   0  0  0  0  0  0  0  0  0  0  0  0
    4.0270   -7.3123    0.0000 C   0  0  0  0  0  0  0  0  0  0  0  0
    1.4289   -7.3123    0.0000 C   0  0  0  0  0  0  0  0  0  0  0  0
    5.3260    3.9373    0.0000 C   0  0  0  0  0  0  0  0  0  0  0  0
    6.6249    1.6874    0.0000 C   0  0  0  0  0  0  0  0  0  0  0  0
    2.7279   -8.0623    0.0000 C   0  0  0  0  0  0  0  0  0  0  0  0
    6.6249    3.1873    0.0000 C   0  0  0  0  0  0  0  0  0  0  0  0
  1 24  1  0  0  0  0
  2  7  2  0  0  0  0
  3 11  2  0  0  0  0
  4 15  3  0  0  0  0
  5  6  1  0  0  0  0
  5  7  1  0  0  0  0
  5 11  1  0  0  0  0
  6 10  1  0  0  0  0
  6 12  1  0  0  0  0
  7  9  1  0  0  0  0
  8  9  2  0  0  0  0
  8 10  1  0  0  0  0
  8 13  1  0  0  0  0
  9 15  1  0  0  0  0
 11 14  1  0  0  0  0
 12 16  2  0  0  0  0
 12 17  1  0  0  0  0
 13 18  2  0  0  0  0
 13 19  1  0  0  0  0
 14 20  2  0  0  0  0
 14 21  1  0  0  0  0
 16 22  1  0  0  0  0
 17 23  2  0  0  0  0
 18 25  1  0  0  0  0
 19 26  2  0  0  0  0
 20 27  1  0  0  0  0
 21 28  2  0  0  0  0
 22 24  2  0  0  0  0
 23 24  1  0  0  0  0
 25 29  2  0  0  0  0
 26 29  1  0  0  0  0
 27 30  2  0  0  0  0
 28 30  1  0  0  0  0
M  END
> <Value>
5.300000202445418

> <Relation>
<

> <SourceURI>
mol:CHEMBL1978371

$$$$

Generated by Molecular Materials Informatics

 31 34  0  0  0  0  0  0  0  0999 V2000
    0.1519   -3.7658    0.0000 S   0  0  0  0  0  0  0  0  0  0  0  0
    0.6921    1.2027    0.0000 O   0  0  0  0  0  0  0  0  0  0  0  0
   -1.1621    6.9089    0.0000 O   0  0  0  0  0  0  0  0  0  0  0  0
    2.8775   -4.0523    0.0000 N   0  0  0  0  0  0  0  0  0  0  0  0
    4.1765   -1.8023    0.0000 N   0  0  0  0  0  0  0  0  0  0  0  0
   -1.7789    0.3997    0.0000 N   0  0  0  0  0  0  0  0  0  0  0  0
    2.8775    0.4477    0.0000 N   0  0  0  0  0  0  0  0  0  0  0  0
   -3.6331    6.1062    0.0000 N   0  0  0  0  0  0  0  0  0  0  0  0
   -3.0929    8.6475    0.0000 N   0  0  0  0  0  0  0  0  0  0  0  0
    1.5784   -1.8023    0.0000 C   0  0  0  0  0  0  0  0  0  0  0  0
    0.1519   -1.3388    0.0000 C   0  0  0  0  0  0  0  0  0  0  0  0
    1.5784   -3.3023    0.0000 C   0  0  0  0  0  0  0  0  0  0  0  0
    2.8775   -1.0523    0.0000 C   0  0  0  0  0  0  0  0  0  0  0  0
   -0.3118    0.0879    0.0000 C   0  0  0  0  0  0  0  0  0  0  0  0
   -0.7298   -2.5523    0.0000 C   0  0  0  0  0  0  0  0  0  0  0  0
    4.1765   -3.3023    0.0000 C   0  0  0  0  0  0  0  0  0  0  0  0
   -2.2425    1.8263    0.0000 C   0  0  0  0  0  0  0  0  0  0  0  0
   -3.1694    4.6796    0.0000 C   0  0  0  0  0  0  0  0  0  0  0  0
   -3.7096    2.1381    0.0000 C   0  0  0  0  0  0  0  0  0  0  0  0
   -1.2387    2.9410    0.0000 C   0  0  0  0  0  0  0  0  0  0  0  0
   -4.1733    3.5649    0.0000 C   0  0  0  0  0  0  0  0  0  0  0  0
   -1.7023    4.3676    0.0000 C   0  0  0  0  0  0  0  0  0  0  0  0
   -4.5602    8.9593    0.0000 C   0  0  0  0  0  0  0  0  0  0  0  0
   -2.6294    7.2209    0.0000 C   0  0  0  0  0  0  0  0  0  0  0  0
   -5.5638    7.8445    0.0000 C   0  0  0  0  0  0  0  0  0  0  0  0
   -5.0236   10.3859    0.0000 C   0  0  0  0  0  0  0  0  0  0  0  0
   -7.0311    8.1566    0.0000 C   0  0  0  0  0  0  0  0  0  0  0  0
   -6.4909   10.6979    0.0000 C   0  0  0  0  0  0  0  0  0  0  0  0
   -7.4946    9.5831    0.0000 C   0  0  0  0  0  0  0  0  0  0  0  0
   -8.0348    7.0418    0.0000 C   0  0  0  0  0  0  0  0  0  0  0  0
   -6.9544   12.1244    0.0000 C   0  0  0  0  0  0  0  0  0  0  0  0
  1 12  1  0  0  0  0
  1 15  1  0  0  0  0
  2 14  2  0  0  0  0
  3 24  2  0  0  0  0
  4 12  2  0  0  0  0
  4 16  1  0  0  0  0
  5 13  1  0  0  0  0
  5 16  2  0  0  0  0
  6 14  1  0  0  0  0
  6 17  1  0  0  0  0
  7 13  1  0  0  0  0
  8 18  1  0  0  0  0
  8 24  1  0  0  0  0
  9 23  1  0  0  0  0
  9 24  1  0  0  0  0
 10 11  1  0  0  0  0
 10 12  1  0  0  0  0
 10 13  2  0  0  0  0
 11 14  1  0  0  0  0
 11 15  2  0  0  0  0
 17 19  2  0  0  0  0
 17 20  1  0  0  0  0
 18 21  2  0  0  0  0
 18 22  1  0  0  0  0
 19 21  1  0  0  0  0
 20 22  2  0  0  0  0
 23 25  2  0  0  0  0
 23 26  1  0  0  0  0
 25 27  1  0  0  0  0
 26 28  2  0  0  0  0
 27 29  2  0  0  0  0
 27 30  1  0  0  0  0
 28 29  1  0  0  0  0
 28 31  1  0  0  0  0
M  END
> <Value>
5.899998417198648

> <Relation>
<

> <SourceURI>
mol:CHEMBL1970203

$$$$

Generated by Molecular Materials Informatics

 33 37  0  0  0  0  0  0  0  0999 V2000
   -3.7347   -4.6312    0.0000 F   0  0  0  0  0  0  0  0  0  0  0  0
    0.1623   -6.8811    0.0000 O   0  0  0  0  0  0  0  0  0  0  0  0
    1.4613    4.3685    0.0000 O   0  0  0  0  0  0  0  0  0  0  0  0
   -2.4356   -6.8811    0.0000 N   0  0  0  0  0  0  0  0  0  0  0  0
    0.1623    0.6186    0.0000 N   0  0  0  0  0  0  0  0  0  0  0  0
   -5.0337   -8.3811    0.0000 N   0  0  0  0  0  0  0  0  0  0  0  0
    0.1623    2.1186    0.0000 N   0  0  0  0  0  0  0  0  0  0  0  0
   -7.6317   -8.3811    0.0000 N   0  0  0  0  0  0  0  0  0  0  0  0
   -6.3326  -10.6310    0.0000 N   0  0  0  0  0  0  0  0  0  0  0  0
    2.7604    0.6186    0.0000 C   0  0  0  0  0  0  0  0  0  0  0  0
   -1.1366   -4.6312    0.0000 C   0  0  0  0  0  0  0  0  0  0  0  0
    1.4613   -0.1314    0.0000 C   0  0  0  0  0  0  0  0  0  0  0  0
    2.7604    2.1186    0.0000 C   0  0  0  0  0  0  0  0  0  0  0  0
   -1.1366   -6.1312    0.0000 C   0  0  0  0  0  0  0  0  0  0  0  0
    0.1623   -2.3813    0.0000 C   0  0  0  0  0  0  0  0  0  0  0  0
   -2.4356   -3.8812    0.0000 C   0  0  0  0  0  0  0  0  0  0  0  0
    0.1623   -3.8812    0.0000 C   0  0  0  0  0  0  0  0  0  0  0  0
    1.4613   -1.6313    0.0000 C   0  0  0  0  0  0  0  0  0  0  0  0
    1.4613    2.8686    0.0000 C   0  0  0  0  0  0  0  0  0  0  0  0
   -1.1366   -1.6313    0.0000 C   0  0  0  0  0  0  0  0  0  0  0  0
    4.0593   -0.1314    0.0000 C   0  0  0  0  0  0  0  0  0  0  0  0
   -2.4356   -2.3813    0.0000 C   0  0  0  0  0  0  0  0  0  0  0  0
   -2.4356   -8.3811    0.0000 C   0  0  0  0  0  0  0  0  0  0  0  0
   -3.7347   -6.1312    0.0000 C   0  0  0  0  0  0  0  0  0  0  0  0
    4.0593    2.8686    0.0000 C   0  0  0  0  0  0  0  0  0  0  0  0
   -6.3326   -9.1311    0.0000 C   0  0  0  0  0  0  0  0  0  0  0  0
   -3.7347   -9.1311    0.0000 C   0  0  0  0  0  0  0  0  0  0  0  0
   -5.0337   -6.8811    0.0000 C   0  0  0  0  0  0  0  0  0  0  0  0
    5.3583    0.6186    0.0000 C   0  0  0  0  0  0  0  0  0  0  0  0
    5.3583    2.1186    0.0000 C   0  0  0  0  0  0  0  0  0  0  0  0
   -8.9307   -9.1311    0.0000 C   0  0  0  0  0  0  0  0  0  0  0  0
   -7.6317  -11.3810    0.0000 C   0  0  0  0  0  0  0  0  0  0  0  0
   -8.9307  -10.6310    0.0000 C   0  0  0  0  0  0  0  0  0  0  0  0
  1 16  1  0  0  0  0
  2 14  2  0  0  0  0
  3 19  2  0  0  0  0
  4 14  1  0  0  0  0
  4 23  1  0  0  0  0
  4 24  1  0  0  0  0
  5  7  1  0  0  0  0
  5 12  2  0  0  0  0
  6 26  1  0  0  0  0
  6 27  1  0  0  0  0
  6 28  1  0  0  0  0
  7 19  1  0  0  0  0
  8 26  2  0  0  0  0
  8 31  1  0  0  0  0
  9 26  1  0  0  0  0
  9 32  2  0  0  0  0
 10 12  1  0  0  0  0
 10 13  2  0  0  0  0
 10 21  1  0  0  0  0
 11 14  1  0  0  0  0
 11 16  1  0  0  0  0
 11 17  2  0  0  0  0
 12 18  1  0  0  0  0
 13 19  1  0  0  0  0
 13 25  1  0  0  0  0
 15 17  1  0  0  0  0
 15 18  1  0  0  0  0
 15 20  2  0  0  0  0
 16 22  2  0  0  0  0
 20 22  1  0  0  0  0
 21 29  1  0  0  0  0
 23 27  1  0  0  0  0
 24 28  1  0  0  0  0
 25 30  1  0  0  0  0
 29 30  1  0  0  0  0
 31 33  2  0  0  0  0
 32 33  1  0  0  0  0
M  END
> <Value>
5.899998417198648

> <Relation>
<

> <SourceURI>
mol:CHEMBL1986530

$$$$

Generated by Molecular Materials Informatics

 29 33  0  0  0  0  0  0  0  0999 V2000
    8.9811    7.3552    0.0000 N   0  0  0  0  0  0  0  0  0  0  0  0
    9.8628    6.1417    0.0000 C   0  0  0  0  0  0  0  0  0  0  0  0
   11.3546    6.2985    0.0000 O   0  0  0  0  0  0  0  0  0  0  0  0
    9.2526    4.7714    0.0000 C   0  0  0  0  0  0  0  0  0  0  0  0
   10.1342    3.5579    0.0000 C   0  0  0  0  0  0  0  0  0  0  0  0
    9.5242    2.1876    0.0000 C   0  0  0  0  0  0  0  0  0  0  0  0
    8.0324    2.0308    0.0000 C   0  0  0  0  0  0  0  0  0  0  0  0
    7.1508    3.2443    0.0000 C   0  0  0  0  0  0  0  0  0  0  0  0
    7.7607    4.6146    0.0000 C   0  0  0  0  0  0  0  0  0  0  0  0
    7.4224    0.6605    0.0000 C   0  0  0  0  0  0  0  0  0  0  0  0
    8.1724   -0.6386    0.0000 N   0  0  0  0  0  0  0  0  0  0  0  0
    7.1686   -1.7534    0.0000 C   0  0  0  0  0  0  0  0  0  0  0  0
    5.7982   -1.1432    0.0000 C   0  0  0  0  0  0  0  0  0  0  0  0
    5.9551    0.3486    0.0000 N   0  0  0  0  0  0  0  0  0  0  0  0
    4.4993   -1.8932    0.0000 C   0  0  0  0  0  0  0  0  0  0  0  0
    4.4993   -3.3932    0.0000 C   0  0  0  0  0  0  0  0  0  0  0  0
    3.2002   -4.1432    0.0000 C   0  0  0  0  0  0  0  0  0  0  0  0
    1.9011   -3.3932    0.0000 C   0  0  0  0  0  0  0  0  0  0  0  0
    0.4746   -3.8566    0.0000 O   0  0  0  0  0  0  0  0  0  0  0  0
   -0.4071   -2.6432    0.0000 C   0  0  0  0  0  0  0  0  0  0  0  0
    0.4746   -1.4297    0.0000 O   0  0  0  0  0  0  0  0  0  0  0  0
    1.9011   -1.8932    0.0000 C   0  0  0  0  0  0  0  0  0  0  0  0
    3.2002   -1.1432    0.0000 C   0  0  0  0  0  0  0  0  0  0  0  0
    7.4804   -3.2204    0.0000 C   0  0  0  0  0  0  0  0  0  0  0  0
    8.9071   -3.6841    0.0000 C   0  0  0  0  0  0  0  0  0  0  0  0
    9.2189   -5.1512    0.0000 C   0  0  0  0  0  0  0  0  0  0  0  0
    8.1042   -6.1550    0.0000 C   0  0  0  0  0  0  0  0  0  0  0  0
    6.6777   -5.6914    0.0000 C   0  0  0  0  0  0  0  0  0  0  0  0
    6.3658   -4.2243    0.0000 N   0  0  0  0  0  0  0  0  0  0  0  0
  1  2  1  0  0  0  0
  2  3  2  0  0  0  0
  2  4  1  0  0  0  0
  4  5  2  0  0  0  0
  5  6  1  0  0  0  0
  6  7  2  0  0  0  0
  7  8  1  0  0  0  0
  8  9  2  0  0  0  0
  4  9  1  0  0  0  0
  7 10  1  0  0  0  0
 10 11  2  0  0  0  0
 11 12  1  0  0  0  0
 12 13  2  0  0  0  0
 13 14  1  0  0  0  0
 10 14  1  0  0  0  0
 13 15  1  0  0  0  0
 15 16  2  0  0  0  0
 16 17  1  0  0  0  0
 17 18  2  0  0  0  0
 18 19  1  0  0  0  0
 19 20  1  0  0  0  0
 20 21  1  0  0  0  0
 21 22  1  0  0  0  0
 18 22  1  0  0  0  0
 22 23  2  0  0  0  0
 15 23  1  0  0  0  0
 12 24  1  0  0  0  0
 24 25  2  0  0  0  0
 25 26  1  0  0  0  0
 26 27  2  0  0  0  0
 27 28  1  0  0  0  0
 28 29  2  0  0  0  0
 24 29  1  0  0  0  0
M  END
> <Value>
5.300000202445418

> <Relation>
<

> <SourceURI>
mol:CHEMBL440084

$$$$

Generated by Molecular Materials Informatics

 29 32  0  0  0  0  0  0  0  0999 V2000
   -7.3115   -5.0309    0.0000 O   0  0  0  0  0  0  0  0  0  0  0  0
   -4.7510   -7.5914    0.0000 O   0  0  0  0  0  0  0  0  0  0  0  0
    3.0598  -11.5260    0.0000 O   0  0  0  0  0  0  0  0  0  0  0  0
   -4.7510   -2.4701    0.0000 N   0  0  0  0  0  0  0  0  0  0  0  0
   -2.1902   -5.0309    0.0000 N   0  0  0  0  0  0  0  0  0  0  0  0
   -8.6481   -0.2201    0.0000 N   0  0  0  0  0  0  0  0  0  0  0  0
   -4.7510   -3.9701    0.0000 C   0  0  0  0  0  0  0  0  0  0  0  0
   -3.6902   -5.0309    0.0000 C   0  0  0  0  0  0  0  0  0  0  0  0
   -5.8115   -5.0309    0.0000 C   0  0  0  0  0  0  0  0  0  0  0  0
   -4.7510   -6.0914    0.0000 C   0  0  0  0  0  0  0  0  0  0  0  0
   -6.0501   -1.7201    0.0000 C   0  0  0  0  0  0  0  0  0  0  0  0
   -1.4402   -6.3298    0.0000 C   0  0  0  0  0  0  0  0  0  0  0  0
   -6.0501   -0.2201    0.0000 C   0  0  0  0  0  0  0  0  0  0  0  0
   -7.3490   -2.4701    0.0000 C   0  0  0  0  0  0  0  0  0  0  0  0
    0.0598   -6.3298    0.0000 C   0  0  0  0  0  0  0  0  0  0  0  0
    0.8098   -7.6289    0.0000 C   0  0  0  0  0  0  0  0  0  0  0  0
    2.3098  -10.2269    0.0000 C   0  0  0  0  0  0  0  0  0  0  0  0
   -7.3490    0.5299    0.0000 C   0  0  0  0  0  0  0  0  0  0  0  0
   -8.6481   -1.7201    0.0000 C   0  0  0  0  0  0  0  0  0  0  0  0
    2.3098   -7.6289    0.0000 C   0  0  0  0  0  0  0  0  0  0  0  0
    0.0598   -8.9280    0.0000 C   0  0  0  0  0  0  0  0  0  0  0  0
    3.0598   -8.9280    0.0000 C   0  0  0  0  0  0  0  0  0  0  0  0
    0.8098  -10.2269    0.0000 C   0  0  0  0  0  0  0  0  0  0  0  0
    4.5598  -11.5260    0.0000 C   0  0  0  0  0  0  0  0  0  0  0  0
    5.3098  -10.2269    0.0000 C   0  0  0  0  0  0  0  0  0  0  0  0
    5.3098  -12.8251    0.0000 C   0  0  0  0  0  0  0  0  0  0  0  0
    6.8098  -10.2269    0.0000 C   0  0  0  0  0  0  0  0  0  0  0  0
    6.8098  -12.8251    0.0000 C   0  0  0  0  0  0  0  0  0  0  0  0
    7.5598  -11.5260    0.0000 C   0  0  0  0  0  0  0  0  0  0  0  0
  1  9  2  0  0  0  0
  2 10  2  0  0  0  0
  3 17  1  0  0  0  0
  3 24  1  0  0  0  0
  4  7  1  0  0  0  0
  4 11  1  0  0  0  0
  5  8  1  0  0  0  0
  5 12  1  0  0  0  0
  6 18  2  0  0  0  0
  6 19  1  0  0  0  0
  7  8  2  0  0  0  0
  7  9  1  0  0  0  0
  8 10  1  0  0  0  0
  9 10  1  0  0  0  0
 11 13  2  0  0  0  0
 11 14  1  0  0  0  0
 12 15  1  0  0  0  0
 13 18  1  0  0  0  0
 14 19  2  0  0  0  0
 15 16  1  0  0  0  0
 16 20  2  0  0  0  0
 16 21  1  0  0  0  0
 17 22  2  0  0  0  0
 17 23  1  0  0  0  0
 20 22  1  0  0  0  0
 21 23  2  0  0  0  0
 24 25  2  0  0  0  0
 24 26  1  0  0  0  0
 25 27  1  0  0  0  0
 26 28  2  0  0  0  0
 27 29  2  0  0  0  0
 28 29  1  0  0  0  0
M  END
> <Value>
5.899998417198648

> <Relation>
<

> <SourceURI>
mol:CHEMBL1999321

$$$$

Generated by Molecular Materials Informatics

 26 29  0  0  0  0  0  0  0  0999 V2000
    5.2235    1.0976    0.0000 S   0  0  0  0  0  0  0  0  0  0  0  0
   -2.4741    4.3158    0.0000 S   0  0  0  0  0  0  0  0  0  0  0  0
    9.3388   -2.5637    0.0000 O   0  0  0  0  0  0  0  0  0  0  0  0
    2.4662   -2.4309    0.0000 N   0  0  0  0  0  0  0  0  0  0  0  0
   -2.4741    1.8887    0.0000 N   0  0  0  0  0  0  0  0  0  0  0  0
    0.5355   -0.6924    0.0000 N   0  0  0  0  0  0  0  0  0  0  0  0
    8.7986   -5.1049    0.0000 N   0  0  0  0  0  0  0  0  0  0  0  0
    3.0064    0.1105    0.0000 C   0  0  0  0  0  0  0  0  0  0  0  0
    2.8495    1.6022    0.0000 C   0  0  0  0  0  0  0  0  0  0  0  0
    4.4735   -0.2015    0.0000 C   0  0  0  0  0  0  0  0  0  0  0  0
    1.5506    2.3522    0.0000 C   0  0  0  0  0  0  0  0  0  0  0  0
    2.0026   -1.0042    0.0000 C   0  0  0  0  0  0  0  0  0  0  0  0
    4.9371   -1.6280    0.0000 C   0  0  0  0  0  0  0  0  0  0  0  0
    4.2199    2.2123    0.0000 C   0  0  0  0  0  0  0  0  0  0  0  0
   -1.0476    2.3522    0.0000 C   0  0  0  0  0  0  0  0  0  0  0  0
   -1.0476    3.8522    0.0000 C   0  0  0  0  0  0  0  0  0  0  0  0
    0.2515    1.6022    0.0000 C   0  0  0  0  0  0  0  0  0  0  0  0
    1.5506    3.8522    0.0000 C   0  0  0  0  0  0  0  0  0  0  0  0
    3.9333   -2.7428    0.0000 C   0  0  0  0  0  0  0  0  0  0  0  0
    0.2515    4.6022    0.0000 C   0  0  0  0  0  0  0  0  0  0  0  0
   -3.3558    3.1022    0.0000 C   0  0  0  0  0  0  0  0  0  0  0  0
    6.4042   -1.9398    0.0000 C   0  0  0  0  0  0  0  0  0  0  0  0
    6.8679   -3.3664    0.0000 C   0  0  0  0  0  0  0  0  0  0  0  0
   -4.8558    3.1022    0.0000 C   0  0  0  0  0  0  0  0  0  0  0  0
    8.3351   -3.6784    0.0000 C   0  0  0  0  0  0  0  0  0  0  0  0
   10.2659   -5.4168    0.0000 C   0  0  0  0  0  0  0  0  0  0  0  0
  1 10  1  0  0  0  0
  1 14  1  0  0  0  0
  2 16  1  0  0  0  0
  2 21  1  0  0  0  0
  3 25  2  0  0  0  0
  4 12  2  0  0  0  0
  4 19  1  0  0  0  0
  5 15  1  0  0  0  0
  5 21  2  0  0  0  0
  6 12  1  0  0  0  0
  7 25  1  0  0  0  0
  7 26  1  0  0  0  0
  8  9  1  0  0  0  0
  8 10  2  0  0  0  0
  8 12  1  0  0  0  0
  9 11  1  0  0  0  0
  9 14  2  0  0  0  0
 10 13  1  0  0  0  0
 11 17  1  0  0  0  0
 11 18  2  0  0  0  0
 13 19  2  0  0  0  0
 22 13  1  0  0  0  0
 15 16  1  0  0  0  0
 15 17  2  0  0  0  0
 16 20  2  0  0  0  0
 18 20  1  0  0  0  0
 21 24  1  0  0  0  0
 22 23  2  0  0  0  0
 23 25  1  0  0  0  0
M  END
> <Value>
5.899998417198648

> <Relation>
<

> <SourceURI>
mol:CHEMBL1968590

$$$$

Generated by Molecular Materials Informatics

 41 47  0  0  0  0  0  0  0  0999 V2000
   14.5344   -0.5027    0.0000 O   0  0  0  0  0  0  0  0  0  0  0  0
   -6.7758   -5.3062    0.0000 O   0  0  0  0  0  0  0  0  0  0  0  0
   -4.1776   -6.8062    0.0000 O   0  0  0  0  0  0  0  0  0  0  0  0
    8.8125   -2.3063    0.0000 N   0  0  0  0  0  0  0  0  0  0  0  0
   -1.5797   -2.3063    0.0000 N   0  0  0  0  0  0  0  0  0  0  0  0
   -2.8787   -0.0563    0.0000 N   0  0  0  0  0  0  0  0  0  0  0  0
   -1.5797    2.1937    0.0000 N   0  0  0  0  0  0  0  0  0  0  0  0
   10.4365   -0.5027    0.0000 C   0  0  0  0  0  0  0  0  0  0  0  0
   11.1864   -1.8017    0.0000 C   0  0  0  0  0  0  0  0  0  0  0  0
   11.9364   -0.5027    0.0000 C   0  0  0  0  0  0  0  0  0  0  0  0
    8.9692   -0.8145    0.0000 C   0  0  0  0  0  0  0  0  0  0  0  0
   10.1826   -2.9164    0.0000 C   0  0  0  0  0  0  0  0  0  0  0  0
   13.2353    0.2473    0.0000 C   0  0  0  0  0  0  0  0  0  0  0  0
    7.5134   -3.0562    0.0000 C   0  0  0  0  0  0  0  0  0  0  0  0
   -0.2806   -0.0563    0.0000 C   0  0  0  0  0  0  0  0  0  0  0  0
    6.2144   -2.3063    0.0000 C   0  0  0  0  0  0  0  0  0  0  0  0
   -1.5797   -0.8063    0.0000 C   0  0  0  0  0  0  0  0  0  0  0  0
   -0.2806    1.4437    0.0000 C   0  0  0  0  0  0  0  0  0  0  0  0
    2.3173   -0.0563    0.0000 C   0  0  0  0  0  0  0  0  0  0  0  0
    3.6164   -0.8063    0.0000 C   0  0  0  0  0  0  0  0  0  0  0  0
    1.0183   -0.8063    0.0000 C   0  0  0  0  0  0  0  0  0  0  0  0
    4.9155   -3.0562    0.0000 C   0  0  0  0  0  0  0  0  0  0  0  0
    6.2144   -0.8063    0.0000 C   0  0  0  0  0  0  0  0  0  0  0  0
    1.0183    2.1937    0.0000 C   0  0  0  0  0  0  0  0  0  0  0  0
    2.3173    1.4437    0.0000 C   0  0  0  0  0  0  0  0  0  0  0  0
   -2.8787   -3.0562    0.0000 C   0  0  0  0  0  0  0  0  0  0  0  0
    3.6164   -2.3063    0.0000 C   0  0  0  0  0  0  0  0  0  0  0  0
    4.9155   -0.0563    0.0000 C   0  0  0  0  0  0  0  0  0  0  0  0
   -4.1776   -5.3062    0.0000 C   0  0  0  0  0  0  0  0  0  0  0  0
   -5.4767   -4.5562    0.0000 C   0  0  0  0  0  0  0  0  0  0  0  0
   -2.8787    1.4437    0.0000 C   0  0  0  0  0  0  0  0  0  0  0  0
   -2.8787   -4.5562    0.0000 C   0  0  0  0  0  0  0  0  0  0  0  0
   -4.1776   -2.3063    0.0000 C   0  0  0  0  0  0  0  0  0  0  0  0
   -5.4767   -3.0562    0.0000 C   0  0  0  0  0  0  0  0  0  0  0  0
   -8.0748   -4.5562    0.0000 C   0  0  0  0  0  0  0  0  0  0  0  0
   -9.3737   -5.3062    0.0000 C   0  0  0  0  0  0  0  0  0  0  0  0
   -8.0748   -3.0562    0.0000 C   0  0  0  0  0  0  0  0  0  0  0  0
   -2.8787   -7.5562    0.0000 C   0  0  0  0  0  0  0  0  0  0  0  0
  -10.6728   -4.5562    0.0000 C   0  0  0  0  0  0  0  0  0  0  0  0
   -9.3737   -2.3063    0.0000 C   0  0  0  0  0  0  0  0  0  0  0  0
  -10.6728   -3.0562    0.0000 C   0  0  0  0  0  0  0  0  0  0  0  0
  1 13  1  0  0  0  0
  2 30  1  0  0  0  0
  2 35  1  0  0  0  0
  3 29  1  0  0  0  0
  3 38  1  0  0  0  0
  4 11  1  0  0  0  0
  4 12  1  0  0  0  0
  4 14  1  0  0  0  0
  5 17  1  0  0  0  0
  5 26  1  0  0  0  0
  6 17  2  0  0  0  0
  6 31  1  0  0  0  0
  7 18  1  0  0  0  0
  7 31  2  0  0  0  0
  8  9  1  0  0  0  0
  8 10  1  0  0  0  0
  8 11  1  0  0  0  0
  9 10  1  0  0  0  0
  9 12  1  0  0  0  0
 10 13  1  0  0  0  0
 14 16  1  0  0  0  0
 15 17  1  0  0  0  0
 15 18  1  0  0  0  0
 15 21  2  0  0  0  0
 16 22  2  0  0  0  0
 16 23  1  0  0  0  0
 18 24  2  0  0  0  0
 19 20  1  0  0  0  0
 19 21  1  0  0  0  0
 19 25  2  0  0  0  0
 20 27  2  0  0  0  0
 20 28  1  0  0  0  0
 22 27  1  0  0  0  0
 23 28  2  0  0  0  0
 24 25  1  0  0  0  0
 26 32  1  0  0  0  0
 26 33  2  0  0  0  0
 29 30  1  0  0  0  0
 29 32  2  0  0  0  0
 30 34  2  0  0  0  0
 33 34  1  0  0  0  0
 35 36  2  0  0  0  0
 35 37  1  0  0  0  0
 36 39  1  0  0  0  0
 37 40  2  0  0  0  0
 39 41  2  0  0  0  0
 40 41  1  0  0  0  0
M  END
> <Value>
5.899998417198648

> <Relation>
<

> <SourceURI>
mol:CHEMBL1999749

$$$$

Generated by Molecular Materials Informatics

 37 41  0  0  0  0  0  0  0  0999 V2000
   -4.4816    4.1062    0.0000 O   0  0  0  0  0  0  0  0  0  0  0  0
    5.9107   -0.3938    0.0000 O   0  0  0  0  0  0  0  0  0  0  0  0
    2.0134   -5.6438    0.0000 O   0  0  0  0  0  0  0  0  0  0  0  0
   -1.8836    1.1062    0.0000 N   0  0  0  0  0  0  0  0  0  0  0  0
   -1.8836    4.1062    0.0000 N   0  0  0  0  0  0  0  0  0  0  0  0
    0.7145    1.1062    0.0000 N   0  0  0  0  0  0  0  0  0  0  0  0
    2.0134    3.3563    0.0000 N   0  0  0  0  0  0  0  0  0  0  0  0
    3.3125    1.1062    0.0000 N   0  0  0  0  0  0  0  0  0  0  0  0
    4.6116   -5.6438    0.0000 N   0  0  0  0  0  0  0  0  0  0  0  0
   -0.5845    1.8563    0.0000 C   0  0  0  0  0  0  0  0  0  0  0  0
   -0.5845    3.3563    0.0000 C   0  0  0  0  0  0  0  0  0  0  0  0
   -3.1825    1.8563    0.0000 C   0  0  0  0  0  0  0  0  0  0  0  0
   -3.1825    3.3563    0.0000 C   0  0  0  0  0  0  0  0  0  0  0  0
   -1.8836   -0.3938    0.0000 C   0  0  0  0  0  0  0  0  0  0  0  0
    2.0134    1.8563    0.0000 C   0  0  0  0  0  0  0  0  0  0  0  0
    0.7145    4.1062    0.0000 C   0  0  0  0  0  0  0  0  0  0  0  0
   -4.4816    1.1062    0.0000 C   0  0  0  0  0  0  0  0  0  0  0  0
   -0.6700   -1.2754    0.0000 C   0  0  0  0  0  0  0  0  0  0  0  0
   -3.0971   -1.2754    0.0000 C   0  0  0  0  0  0  0  0  0  0  0  0
    3.3125   -0.3938    0.0000 C   0  0  0  0  0  0  0  0  0  0  0  0
   -1.8836    5.6062    0.0000 C   0  0  0  0  0  0  0  0  0  0  0  0
    4.6116   -1.1438    0.0000 C   0  0  0  0  0  0  0  0  0  0  0  0
   -1.1336   -2.7019    0.0000 C   0  0  0  0  0  0  0  0  0  0  0  0
   -2.6336   -2.7019    0.0000 C   0  0  0  0  0  0  0  0  0  0  0  0
    3.3125   -3.3938    0.0000 C   0  0  0  0  0  0  0  0  0  0  0  0
    2.0134   -1.1438    0.0000 C   0  0  0  0  0  0  0  0  0  0  0  0
    4.6116   -2.6437    0.0000 C   0  0  0  0  0  0  0  0  0  0  0  0
    2.0134   -2.6437    0.0000 C   0  0  0  0  0  0  0  0  0  0  0  0
   -5.7807    1.8563    0.0000 C   0  0  0  0  0  0  0  0  0  0  0  0
    3.3125   -4.8938    0.0000 C   0  0  0  0  0  0  0  0  0  0  0  0
    4.6116   -7.1437    0.0000 C   0  0  0  0  0  0  0  0  0  0  0  0
    7.2096   -1.1438    0.0000 C   0  0  0  0  0  0  0  0  0  0  0  0
    5.9107   -7.8938    0.0000 C   0  0  0  0  0  0  0  0  0  0  0  0
    3.3125   -7.8938    0.0000 C   0  0  0  0  0  0  0  0  0  0  0  0
    5.9107   -9.3938    0.0000 C   0  0  0  0  0  0  0  0  0  0  0  0
    3.3125   -9.3938    0.0000 C   0  0  0  0  0  0  0  0  0  0  0  0
    4.6116  -10.1438    0.0000 C   0  0  0  0  0  0  0  0  0  0  0  0
  1 13  2  0  0  0  0
  2 22  1  0  0  0  0
  2 32  1  0  0  0  0
  3 30  2  0  0  0  0
  4 10  1  0  0  0  0
  4 12  1  0  0  0  0
  4 14  1  0  0  0  0
  5 11  1  0  0  0  0
  5 13  1  0  0  0  0
  5 21  1  0  0  0  0
  6 10  2  0  0  0  0
  6 15  1  0  0  0  0
  7 15  2  0  0  0  0
  7 16  1  0  0  0  0
  8 15  1  0  0  0  0
  8 20  1  0  0  0  0
  9 30  1  0  0  0  0
  9 31  1  0  0  0  0
 10 11  1  0  0  0  0
 11 16  2  0  0  0  0
 12 13  1  0  0  0  0
 12 17  1  0  0  0  0
 14 18  1  0  0  0  0
 14 19  1  0  0  0  0
 17 29  1  0  0  0  0
 18 23  1  0  0  0  0
 19 24  1  0  0  0  0
 20 22  1  0  0  0  0
 20 26  2  0  0  0  0
 22 27  2  0  0  0  0
 23 24  1  0  0  0  0
 25 27  1  0  0  0  0
 25 28  2  0  0  0  0
 25 30  1  0  0  0  0
 26 28  1  0  0  0  0
 31 33  1  0  0  0  0
 31 34  1  0  0  0  0
 33 35  1  0  0  0  0
 34 36  1  0  0  0  0
 35 37  1  0  0  0  0
 36 37  1  0  0  0  0
M  END
> <Value>
5.899998417198648

> <Relation>
<

> <SourceURI>
mol:CHEMBL2005375

$$$$

Generated by Molecular Materials Informatics

 19 21  0  0  0  0  0  0  0  0999 V2000
   -0.9400    2.4318    0.0000 Cl  0  0  0  0  0  0  0  0  0  0  0  0
    1.6582    3.9318    0.0000 Cl  0  0  0  0  0  0  0  0  0  0  0  0
    2.8717   -2.9498    0.0000 N   0  0  0  0  0  0  0  0  0  0  0  0
    2.4082   -4.3763    0.0000 N   0  0  0  0  0  0  0  0  0  0  0  0
   -1.2938   -1.0191    0.0000 N   0  0  0  0  0  0  0  0  0  0  0  0
   -3.8350   -1.5593    0.0000 N   0  0  0  0  0  0  0  0  0  0  0  0
    1.6582   -2.0682    0.0000 C   0  0  0  0  0  0  0  0  0  0  0  0
    0.4446   -2.9498    0.0000 C   0  0  0  0  0  0  0  0  0  0  0  0
    1.6582   -0.5682    0.0000 C   0  0  0  0  0  0  0  0  0  0  0  0
   -0.9820   -2.4863    0.0000 C   0  0  0  0  0  0  0  0  0  0  0  0
    0.9082   -4.3763    0.0000 C   0  0  0  0  0  0  0  0  0  0  0  0
    0.3591    0.1818    0.0000 C   0  0  0  0  0  0  0  0  0  0  0  0
    2.9571    0.1818    0.0000 C   0  0  0  0  0  0  0  0  0  0  0  0
    0.3591    1.6818    0.0000 C   0  0  0  0  0  0  0  0  0  0  0  0
    1.6582    2.4318    0.0000 C   0  0  0  0  0  0  0  0  0  0  0  0
    2.9571    1.6818    0.0000 C   0  0  0  0  0  0  0  0  0  0  0  0
   -2.0967   -3.4900    0.0000 C   0  0  0  0  0  0  0  0  0  0  0  0
   -2.7203   -0.5556    0.0000 C   0  0  0  0  0  0  0  0  0  0  0  0
   -3.5232   -3.0265    0.0000 C   0  0  0  0  0  0  0  0  0  0  0  0
  1 14  1  0  0  0  0
  2 15  1  0  0  0  0
  3  4  1  0  0  0  0
  3  7  2  0  0  0  0
  4 11  1  0  0  0  0
  5 10  1  0  0  0  0
  5 18  2  0  0  0  0
  6 18  1  0  0  0  0
  6 19  2  0  0  0  0
  7  8  1  0  0  0  0
  7  9  1  0  0  0  0
  8 10  1  0  0  0  0
  8 11  2  0  0  0  0
  9 12  1  0  0  0  0
  9 13  2  0  0  0  0
 10 17  2  0  0  0  0
 12 14  2  0  0  0  0
 13 16  1  0  0  0  0
 14 15  1  0  0  0  0
 15 16  2  0  0  0  0
 17 19  1  0  0  0  0
M  END
> <Value>
5.899998417198648

> <Relation>
<

> <SourceURI>
mol:CHEMBL1984191

$$$$

Generated by Molecular Materials Informatics

 24 25  0  0  0  0  0  0  0  0999 V2000
    1.0068  -11.8688    0.0000 Cl  0  0  0  0  0  0  0  0  0  0  0  0
    1.0068   -5.8688    0.0000 O   0  0  0  0  0  0  0  0  0  0  0  0
    3.6048  -11.8688    0.0000 O   0  0  0  0  0  0  0  0  0  0  0  0
    4.9039   -9.6187    0.0000 O   0  0  0  0  0  0  0  0  0  0  0  0
   -0.2923   -5.1187    0.0000 O   0  0  0  0  0  0  0  0  0  0  0  0
   -1.5914   -7.3687    0.0000 N   0  0  0  0  0  0  0  0  0  0  0  0
   -2.8903   -5.1187    0.0000 N   0  0  0  0  0  0  0  0  0  0  0  0
   -1.5914   -2.8688    0.0000 N   0  0  0  0  0  0  0  0  0  0  0  0
   -4.1894   -1.3688    0.0000 N   0  0  0  0  0  0  0  0  0  0  0  0
   -2.8903    2.3812    0.0000 N   0  0  0  0  0  0  0  0  0  0  0  0
   -0.2923   -8.1187    0.0000 C   0  0  0  0  0  0  0  0  0  0  0  0
    1.0068   -7.3687    0.0000 C   0  0  0  0  0  0  0  0  0  0  0  0
    2.3057   -9.6187    0.0000 C   0  0  0  0  0  0  0  0  0  0  0  0
    1.0068  -10.3687    0.0000 C   0  0  0  0  0  0  0  0  0  0  0  0
    2.3057   -8.1187    0.0000 C   0  0  0  0  0  0  0  0  0  0  0  0
   -0.2923   -9.6187    0.0000 C   0  0  0  0  0  0  0  0  0  0  0  0
    3.6048  -10.3687    0.0000 C   0  0  0  0  0  0  0  0  0  0  0  0
   -1.5914   -5.8688    0.0000 C   0  0  0  0  0  0  0  0  0  0  0  0
   -2.8903   -3.6188    0.0000 C   0  0  0  0  0  0  0  0  0  0  0  0
   -4.1894   -2.8688    0.0000 C   0  0  0  0  0  0  0  0  0  0  0  0
   -2.8903   -0.6188    0.0000 C   0  0  0  0  0  0  0  0  0  0  0  0
   -1.5914   -1.3688    0.0000 C   0  0  0  0  0  0  0  0  0  0  0  0
    2.3057   -5.1187    0.0000 C   0  0  0  0  0  0  0  0  0  0  0  0
   -2.8903    0.8812    0.0000 C   0  0  0  0  0  0  0  0  0  0  0  0
  1 14  1  0  0  0  0
  2 12  1  0  0  0  0
  2 23  1  0  0  0  0
  3 17  2  0  0  0  0
  4 17  1  0  0  0  0
  5 18  2  0  0  0  0
  6 11  1  0  0  0  0
  6 18  1  0  0  0  0
  7 18  1  0  0  0  0
  7 19  1  0  0  0  0
  8 19  1  0  0  0  0
  8 22  2  0  0  0  0
  9 20  1  0  0  0  0
  9 21  2  0  0  0  0
 10 24  3  0  0  0  0
 11 12  1  0  0  0  0
 11 16  2  0  0  0  0
 12 15  2  0  0  0  0
 13 14  2  0  0  0  0
 13 15  1  0  0  0  0
 13 17  1  0  0  0  0
 14 16  1  0  0  0  0
 19 20  2  0  0  0  0
 21 22  1  0  0  0  0
 21 24  1  0  0  0  0
M  END
> <Value>
5.899998417198648

> <Relation>
<

> <SourceURI>
mol:CHEMBL1983006

$$$$

Generated by Molecular Materials Informatics

 27 29  0  0  0  0  0  0  0  0999 V2000
   -9.5677   15.9877    0.0000 F   0  0  0  0  0  0  0  0  0  0  0  0
  -11.0677   14.4877    0.0000 F   0  0  0  0  0  0  0  0  0  0  0  0
   -8.0677   14.4877    0.0000 F   0  0  0  0  0  0  0  0  0  0  0  0
   -6.9695    8.4877    0.0000 O   0  0  0  0  0  0  0  0  0  0  0  0
   -0.4744   -0.3835    0.0000 O   0  0  0  0  0  0  0  0  0  0  0  0
   -3.0724   -0.3835    0.0000 O   0  0  0  0  0  0  0  0  0  0  0  0
   -1.7735    3.9877    0.0000 N   0  0  0  0  0  0  0  0  0  0  0  0
   -1.7735    1.8665    0.0000 C   0  0  0  0  0  0  0  0  0  0  0  0
   -3.0724    6.2377    0.0000 C   0  0  0  0  0  0  0  0  0  0  0  0
   -0.7128    2.9272    0.0000 C   0  0  0  0  0  0  0  0  0  0  0  0
   -2.8341    2.9272    0.0000 C   0  0  0  0  0  0  0  0  0  0  0  0
   -9.5677   12.9877    0.0000 C   0  0  0  0  0  0  0  0  0  0  0  0
   -1.7735    5.4877    0.0000 C   0  0  0  0  0  0  0  0  0  0  0  0
   -4.3715    5.4877    0.0000 C   0  0  0  0  0  0  0  0  0  0  0  0
   -9.5677   14.4877    0.0000 C   0  0  0  0  0  0  0  0  0  0  0  0
   -5.6706    7.7377    0.0000 C   0  0  0  0  0  0  0  0  0  0  0  0
   -8.2686   10.7377    0.0000 C   0  0  0  0  0  0  0  0  0  0  0  0
   -8.2686   12.2377    0.0000 C   0  0  0  0  0  0  0  0  0  0  0  0
   -1.7735    0.3665    0.0000 C   0  0  0  0  0  0  0  0  0  0  0  0
   -5.6706    6.2377    0.0000 C   0  0  0  0  0  0  0  0  0  0  0  0
   -3.0724    7.7377    0.0000 C   0  0  0  0  0  0  0  0  0  0  0  0
   -4.3715    8.4877    0.0000 C   0  0  0  0  0  0  0  0  0  0  0  0
  -10.8668   12.2377    0.0000 C   0  0  0  0  0  0  0  0  0  0  0  0
   -6.9695    9.9877    0.0000 C   0  0  0  0  0  0  0  0  0  0  0  0
   -9.5677    9.9877    0.0000 C   0  0  0  0  0  0  0  0  0  0  0  0
  -10.8668   10.7377    0.0000 C   0  0  0  0  0  0  0  0  0  0  0  0
   -4.3715    3.9877    0.0000 C   0  0  0  0  0  0  0  0  0  0  0  0
  1 15  1  0  0  0  0
  2 15  1  0  0  0  0
  3 15  1  0  0  0  0
  4 16  1  0  0  0  0
  4 24  1  0  0  0  0
  5 19  2  0  0  0  0
  6 19  1  0  0  0  0
  7 10  1  0  0  0  0
  7 11  1  0  0  0  0
  7 13  1  0  0  0  0
  8 10  1  0  0  0  0
  8 11  1  0  0  0  0
  8 19  1  0  0  0  0
  9 13  1  0  0  0  0
  9 14  1  0  0  0  0
  9 21  2  0  0  0  0
 12 15  1  0  0  0  0
 12 18  2  0  0  0  0
 12 23  1  0  0  0  0
 14 20  2  0  0  0  0
 14 27  1  0  0  0  0
 16 20  1  0  0  0  0
 16 22  2  0  0  0  0
 17 18  1  0  0  0  0
 17 24  1  0  0  0  0
 17 25  2  0  0  0  0
 21 22  1  0  0  0  0
 23 26  2  0  0  0  0
 25 26  1  0  0  0  0
M  END
> <Value>
5.300000202445418

> <Relation>
<

> <SourceURI>
mol:CHEMBL1966501

$$$$

Generated by Molecular Materials Informatics

 37 40  0  0  0  0  0  0  0  0999 V2000
   -1.3443   -6.7500    0.0000 Br  0  0  0  0  0  0  0  0  0  0  0  0
    3.8519   -6.7500    0.0000 S   0  0  0  0  0  0  0  0  0  0  0  0
    2.3519   -6.7500    0.0000 O   0  0  0  0  0  0  0  0  0  0  0  0
    5.3519   -6.7500    0.0000 O   0  0  0  0  0  0  0  0  0  0  0  0
   -3.9423   -2.2500    0.0000 O   0  0  0  0  0  0  0  0  0  0  0  0
   -2.6432    9.0000    0.0000 O   0  0  0  0  0  0  0  0  0  0  0  0
    1.2539   -5.2500    0.0000 N   0  0  0  0  0  0  0  0  0  0  0  0
   -0.0452   -3.0000    0.0000 N   0  0  0  0  0  0  0  0  0  0  0  0
   -1.3443   -0.7500    0.0000 N   0  0  0  0  0  0  0  0  0  0  0  0
   -3.9423    3.7500    0.0000 N   0  0  0  0  0  0  0  0  0  0  0  0
   -2.6432   -3.0000    0.0000 N   0  0  0  0  0  0  0  0  0  0  0  0
    3.8519   -8.2500    0.0000 N   0  0  0  0  0  0  0  0  0  0  0  0
   -3.9423    6.7500    0.0000 N   0  0  0  0  0  0  0  0  0  0  0  0
    3.8519   -5.2500    0.0000 C   0  0  0  0  0  0  0  0  0  0  0  0
    2.5528   -4.5000    0.0000 C   0  0  0  0  0  0  0  0  0  0  0  0
   -0.0452   -4.5000    0.0000 C   0  0  0  0  0  0  0  0  0  0  0  0
   -2.6432    0.0000    0.0000 C   0  0  0  0  0  0  0  0  0  0  0  0
   -1.3443   -2.2500    0.0000 C   0  0  0  0  0  0  0  0  0  0  0  0
   -3.9423    2.2500    0.0000 C   0  0  0  0  0  0  0  0  0  0  0  0
   -3.9423   -0.7500    0.0000 C   0  0  0  0  0  0  0  0  0  0  0  0
   -1.3443   -5.2500    0.0000 C   0  0  0  0  0  0  0  0  0  0  0  0
   -2.6432    1.5000    0.0000 C   0  0  0  0  0  0  0  0  0  0  0  0
    5.1510   -4.5000    0.0000 C   0  0  0  0  0  0  0  0  0  0  0  0
    2.5528   -3.0000    0.0000 C   0  0  0  0  0  0  0  0  0  0  0  0
   -5.2414    1.5000    0.0000 C   0  0  0  0  0  0  0  0  0  0  0  0
   -5.2414    0.0000    0.0000 C   0  0  0  0  0  0  0  0  0  0  0  0
   -2.6432   -4.5000    0.0000 C   0  0  0  0  0  0  0  0  0  0  0  0
    5.1510   -3.0000    0.0000 C   0  0  0  0  0  0  0  0  0  0  0  0
    3.8519   -2.2500    0.0000 C   0  0  0  0  0  0  0  0  0  0  0  0
   -5.2414    4.5000    0.0000 C   0  0  0  0  0  0  0  0  0  0  0  0
   -2.6432    4.5000    0.0000 C   0  0  0  0  0  0  0  0  0  0  0  0
   -5.2414    6.0000    0.0000 C   0  0  0  0  0  0  0  0  0  0  0  0
   -2.6432    6.0000    0.0000 C   0  0  0  0  0  0  0  0  0  0  0  0
   -3.9423    8.2500    0.0000 C   0  0  0  0  0  0  0  0  0  0  0  0
    5.1510   -9.0000    0.0000 C   0  0  0  0  0  0  0  0  0  0  0  0
   -5.2414   -3.0000    0.0000 C   0  0  0  0  0  0  0  0  0  0  0  0
   -5.2414    9.0000    0.0000 C   0  0  0  0  0  0  0  0  0  0  0  0
  1 21  1  0  0  0  0
  2  3  2  0  0  0  0
  2  4  2  0  0  0  0
  2 12  1  0  0  0  0
  2 14  1  0  0  0  0
  5 20  1  0  0  0  0
  5 36  1  0  0  0  0
  6 34  2  0  0  0  0
  7 15  1  0  0  0  0
  7 16  1  0  0  0  0
  8 16  2  0  0  0  0
  8 18  1  0  0  0  0
  9 17  1  0  0  0  0
  9 18  1  0  0  0  0
 10 19  1  0  0  0  0
 10 30  1  0  0  0  0
 10 31  1  0  0  0  0
 11 18  2  0  0  0  0
 11 27  1  0  0  0  0
 12 35  1  0  0  0  0
 13 32  1  0  0  0  0
 13 33  1  0  0  0  0
 13 34  1  0  0  0  0
 14 15  1  0  0  0  0
 14 23  2  0  0  0  0
 15 24  2  0  0  0  0
 16 21  1  0  0  0  0
 17 20  1  0  0  0  0
 17 22  2  0  0  0  0
 19 22  1  0  0  0  0
 19 25  2  0  0  0  0
 20 26  2  0  0  0  0
 21 27  2  0  0  0  0
 23 28  1  0  0  0  0
 24 29  1  0  0  0  0
 25 26  1  0  0  0  0
 28 29  2  0  0  0  0
 30 32  1  0  0  0  0
 31 33  1  0  0  0  0
 34 37  1  0  0  0  0
M  END
> <Value>
6.199998172182031

> <Relation>
=

> <SourceURI>
mol:CHEMBL1971029

$$$$

Generated by Molecular Materials Informatics

 27 30  0  0  0  0  0  0  0  0999 V2000
   -3.1068   -4.2606    0.0000 C   0  0  0  0  0  0  0  0  0  0  0  0
   -3.1090   -5.7675    0.0000 C   0  0  0  0  0  0  0  0  0  0  0  0
   -1.8098   -6.5150    0.0000 C   0  0  0  0  0  0  0  0  0  0  0  0
   -0.5076   -5.7666    0.0000 C   0  0  0  0  0  0  0  0  0  0  0  0
   -0.5133   -4.2535    0.0000 C   0  0  0  0  0  0  0  0  0  0  0  0
   -1.8135   -3.5051    0.0000 C   0  0  0  0  0  0  0  0  0  0  0  0
    0.7904   -3.4929    0.0000 N   0  0  0  0  0  0  0  0  0  0  0  0
    2.0919   -4.2428    0.0000 C   0  0  0  0  0  0  0  0  0  0  0  0
    3.3872   -3.4824    0.0000 N   0  0  0  0  0  0  0  0  0  0  0  0
    2.0981   -5.7448    0.0000 O   0  0  0  0  0  0  0  0  0  0  0  0
    4.6887   -4.2321    0.0000 C   0  0  0  0  0  0  0  0  0  0  0  0
    4.6887   -5.7319    0.0000 C   0  0  0  0  0  0  0  0  0  0  0  0
    5.9887   -6.4732    0.0000 C   0  0  0  0  0  0  0  0  0  0  0  0
    7.2942   -5.7208    0.0000 C   0  0  0  0  0  0  0  0  0  0  0  0
    7.2827   -4.2103    0.0000 C   0  0  0  0  0  0  0  0  0  0  0  0
    5.9816   -3.4764    0.0000 C   0  0  0  0  0  0  0  0  0  0  0  0
   -4.4026   -6.5197    0.0000 C   0  0  0  0  0  0  0  0  0  0  0  0
   -6.0338   -8.3199    0.0000 S   0  0  0  0  0  0  0  0  0  0  0  0
   -4.5593   -8.0124    0.0000 C   0  0  0  0  0  0  0  0  0  0  0  0
   -6.7795   -7.0206    0.0000 C   0  0  0  0  0  0  0  0  0  0  0  0
   -5.7825   -5.9162    0.0000 C   0  0  0  0  0  0  0  0  0  0  0  0
   -6.2352   -4.4969    0.0000 C   0  0  0  0  0  0  0  0  0  0  0  0
   -7.7008   -4.1803    0.0000 N   0  0  0  0  0  0  0  0  0  0  0  0
   -8.6960   -5.3031    0.0000 C   0  0  0  0  0  0  0  0  0  0  0  0
   -8.2377   -6.7175    0.0000 C   0  0  0  0  0  0  0  0  0  0  0  0
   -5.2339   -3.3850    0.0000 N   0  0  0  0  0  0  0  0  0  0  0  0
    8.5751   -3.4531    0.0000 Cl  0  0  0  0  0  0  0  0  0  0  0  0
  1  2  2  0  0  0  0
 13 14  2  0  0  0  0
  5  7  1  0  0  0  0
 14 15  1  0  0  0  0
  3  4  2  0  0  0  0
 15 16  2  0  0  0  0
 16 11  1  0  0  0  0
 17 21  1  0  0  0  0
  7  8  1  0  0  0  0
  8  9  1  0  0  0  0
 20 18  1  0  0  0  0
 18 19  1  0  0  0  0
 19 17  2  0  0  0  0
  2 17  1  0  0  0  0
  4  5  1  0  0  0  0
  8 10  2  0  0  0  0
 20 21  2  0  0  0  0
  2  3  1  0  0  0  0
 21 22  1  0  0  0  0
  9 11  1  0  0  0  0
 22 23  2  0  0  0  0
  5  6  2  0  0  0  0
 23 24  1  0  0  0  0
 11 12  2  0  0  0  0
 24 25  2  0  0  0  0
 25 20  1  0  0  0  0
  6  1  1  0  0  0  0
 22 26  1  0  0  0  0
 12 13  1  0  0  0  0
 15 27  1  0  0  0  0
M  END
> <Value>
5.899998417198648

> <Relation>
<

> <SourceURI>
mol:CHEMBL394790

$$$$

Generated by Molecular Materials Informatics

 23 26  0  0  0  0  0  0  0  0999 V2000
    5.8743    1.8229    0.0000 N   0  0  0  0  0  0  0  0  0  0  0  0
    4.5752    4.0729    0.0000 O   0  0  0  0  0  0  0  0  0  0  0  0
   -2.7821   -2.8242    0.0000 C   0  0  0  0  0  0  0  0  0  0  0  0
   -1.2821   -0.2260    0.0000 C   0  0  0  0  0  0  0  0  0  0  0  0
   -3.5321   -4.1231    0.0000 C   0  0  0  0  0  0  0  0  0  0  0  0
    1.8496    2.2865    0.0000 C   0  0  0  0  0  0  0  0  0  0  0  0
    5.8743    0.3229    0.0000 C   0  0  0  0  0  0  0  0  0  0  0  0
    4.5752   -0.4271    0.0000 C   0  0  0  0  0  0  0  0  0  0  0  0
    3.2763    1.8229    0.0000 C   0  0  0  0  0  0  0  0  0  0  0  0
    4.5752    2.5729    0.0000 C   0  0  0  0  0  0  0  0  0  0  0  0
   -1.2821    2.3720    0.0000 C   0  0  0  0  0  0  0  0  0  0  0  0
   -2.7821    2.3720    0.0000 C   0  0  0  0  0  0  0  0  0  0  0  0
    3.2763    0.3229    0.0000 C   0  0  0  0  0  0  0  0  0  0  0  0
   -0.5321    1.0729    0.0000 C   0  0  0  0  0  0  0  0  0  0  0  0
    0.9679    1.0729    0.0000 C   0  0  0  0  0  0  0  0  0  0  0  0
   -2.7821   -0.2260    0.0000 C   0  0  0  0  0  0  0  0  0  0  0  0
   -3.5321   -1.5251    0.0000 C   0  0  0  0  0  0  0  0  0  0  0  0
   -5.0321   -1.5251    0.0000 C   0  0  0  0  0  0  0  0  0  0  0  0
   -5.7821   -2.8242    0.0000 C   0  0  0  0  0  0  0  0  0  0  0  0
   -5.0321   -4.1231    0.0000 C   0  0  0  0  0  0  0  0  0  0  0  0
   -5.7821   -0.2260    0.0000 F   0  0  0  0  0  0  0  0  0  0  0  0
    1.8496   -0.1406    0.0000 N   0  0  0  0  0  0  0  0  0  0  0  0
   -3.5321    1.0729    0.0000 N   0  0  0  0  0  0  0  0  0  0  0  0
 10  1  1  0  0  0  0
  7  1  1  0  0  0  0
 10  2  2  0  0  0  0
  3  5  2  0  0  0  0
  3 17  1  0  0  0  0
  4 16  2  0  0  0  0
  4 14  1  0  0  0  0
 20  5  1  0  0  0  0
 15  6  2  0  0  0  0
  6  9  1  0  0  0  0
  7  8  1  0  0  0  0
  8 13  1  0  0  0  0
  9 10  1  0  0  0  0
  9 13  2  0  0  0  0
 11 12  1  0  0  0  0
 14 11  2  0  0  0  0
 12 23  2  0  0  0  0
 13 22  1  0  0  0  0
 14 15  1  0  0  0  0
 15 22  1  0  0  0  0
 16 23  1  0  0  0  0
 16 17  1  0  0  0  0
 17 18  2  0  0  0  0
 18 19  1  0  0  0  0
 18 21  1  0  0  0  0
 19 20  2  0  0  0  0
M  END
> <Value>
6.199998172182031

> <Relation>
=

> <SourceURI>
mol:CHEMBL226471

$$$$

Generated by Molecular Materials Informatics

 17 19  0  0  0  0  0  0  0  0999 V2000
    4.6927    0.8800    0.0000 Br  0  0  0  0  0  0  0  0  0  0  0  0
    2.8387   -4.8263    0.0000 Cl  0  0  0  0  0  0  0  0  0  0  0  0
    1.5485    0.0233    0.0000 S   0  0  0  0  0  0  0  0  0  0  0  0
   -2.1361   -1.6612    0.0000 O   0  0  0  0  0  0  0  0  0  0  0  0
   -1.5959    0.8800    0.0000 O   0  0  0  0  0  0  0  0  0  0  0  0
   -0.2053   -3.3998    0.0000 N   0  0  0  0  0  0  0  0  0  0  0  0
    2.2985   -2.2851    0.0000 C   0  0  0  0  0  0  0  0  0  0  0  0
    0.7985   -2.2851    0.0000 C   0  0  0  0  0  0  0  0  0  0  0  0
    2.7619   -0.8585    0.0000 C   0  0  0  0  0  0  0  0  0  0  0  0
    0.3348   -0.8585    0.0000 C   0  0  0  0  0  0  0  0  0  0  0  0
    3.3021   -3.3998    0.0000 C   0  0  0  0  0  0  0  0  0  0  0  0
   -1.1324   -0.5465    0.0000 C   0  0  0  0  0  0  0  0  0  0  0  0
    4.2292   -0.5465    0.0000 C   0  0  0  0  0  0  0  0  0  0  0  0
   -1.6724   -3.0878    0.0000 C   0  0  0  0  0  0  0  0  0  0  0  0
    4.7694   -3.0878    0.0000 C   0  0  0  0  0  0  0  0  0  0  0  0
    5.2329   -1.6612    0.0000 C   0  0  0  0  0  0  0  0  0  0  0  0
   -2.6763   -4.2025    0.0000 C   0  0  0  0  0  0  0  0  0  0  0  0
  1 13  1  0  0  0  0
  2 11  1  0  0  0  0
  3  9  1  0  0  0  0
  3 10  1  0  0  0  0
  4 12  1  0  0  0  0
  4 14  1  0  0  0  0
  5 12  2  0  0  0  0
  6  8  1  0  0  0  0
  6 14  2  0  0  0  0
  7  8  1  0  0  0  0
  7  9  1  0  0  0  0
  7 11  2  0  0  0  0
  8 10  2  0  0  0  0
  9 13  2  0  0  0  0
 10 12  1  0  0  0  0
 11 15  1  0  0  0  0
 13 16  1  0  0  0  0
 14 17  1  0  0  0  0
 15 16  2  0  0  0  0
M  END
> <Value>
6.599997654072044

> <Relation>
=

> <SourceURI>
mol:CHEMBL1974702

$$$$

Generated by Molecular Materials Informatics

 26 29  0  0  0  0  0  0  0  0999 V2000
    3.1459    3.8098    0.0000 O   0  0  0  0  0  0  0  0  0  0  0  0
    4.9525    0.2242    0.0000 N   0  0  0  0  0  0  0  0  0  0  0  0
    2.7354   -0.7629    0.0000 N   0  0  0  0  0  0  0  0  0  0  0  0
    4.2025   -1.0749    0.0000 N   0  0  0  0  0  0  0  0  0  0  0  0
    5.6874    3.2696    0.0000 N   0  0  0  0  0  0  0  0  0  0  0  0
   -2.7452    3.4423    0.0000 N   0  0  0  0  0  0  0  0  0  0  0  0
   -3.6268    2.2287    0.0000 N   0  0  0  0  0  0  0  0  0  0  0  0
    3.9488    1.3389    0.0000 C   0  0  0  0  0  0  0  0  0  0  0  0
    2.5785    0.7287    0.0000 C   0  0  0  0  0  0  0  0  0  0  0  0
    1.2796    1.4787    0.0000 C   0  0  0  0  0  0  0  0  0  0  0  0
    4.2607    2.8062    0.0000 C   0  0  0  0  0  0  0  0  0  0  0  0
   -1.3186    1.4787    0.0000 C   0  0  0  0  0  0  0  0  0  0  0  0
   -0.0195    0.7287    0.0000 C   0  0  0  0  0  0  0  0  0  0  0  0
   -1.3186    2.9787    0.0000 C   0  0  0  0  0  0  0  0  0  0  0  0
    1.2796    2.9787    0.0000 C   0  0  0  0  0  0  0  0  0  0  0  0
    6.4443    0.3809    0.0000 C   0  0  0  0  0  0  0  0  0  0  0  0
   -0.0195    3.7287    0.0000 C   0  0  0  0  0  0  0  0  0  0  0  0
   -2.7452    1.0152    0.0000 C   0  0  0  0  0  0  0  0  0  0  0  0
    7.3259   -0.8326    0.0000 C   0  0  0  0  0  0  0  0  0  0  0  0
    8.8178   -0.6758    0.0000 C   0  0  0  0  0  0  0  0  0  0  0  0
    6.7159   -2.2029    0.0000 C   0  0  0  0  0  0  0  0  0  0  0  0
    6.8019    2.2660    0.0000 C   0  0  0  0  0  0  0  0  0  0  0  0
    5.9992    4.7369    0.0000 C   0  0  0  0  0  0  0  0  0  0  0  0
    9.6994   -1.8893    0.0000 C   0  0  0  0  0  0  0  0  0  0  0  0
    7.5976   -3.4164    0.0000 C   0  0  0  0  0  0  0  0  0  0  0  0
    9.0894   -3.2597    0.0000 C   0  0  0  0  0  0  0  0  0  0  0  0
  1 11  2  0  0  0  0
  2  4  1  0  0  0  0
  2  8  1  0  0  0  0
  2 16  1  0  0  0  0
  3  4  2  0  0  0  0
  3  9  1  0  0  0  0
  5 11  1  0  0  0  0
  5 22  1  0  0  0  0
  5 23  1  0  0  0  0
  6  7  1  0  0  0  0
  6 14  1  0  0  0  0
  7 18  2  0  0  0  0
  8  9  2  0  0  0  0
  8 11  1  0  0  0  0
  9 10  1  0  0  0  0
 10 13  1  0  0  0  0
 10 15  2  0  0  0  0
 12 13  2  0  0  0  0
 12 14  1  0  0  0  0
 12 18  1  0  0  0  0
 14 17  2  0  0  0  0
 15 17  1  0  0  0  0
 16 19  1  0  0  0  0
 19 20  2  0  0  0  0
 19 21  1  0  0  0  0
 20 24  1  0  0  0  0
 21 25  2  0  0  0  0
 24 26  2  0  0  0  0
 25 26  1  0  0  0  0
M  END
> <Value>
5.899998417198648

> <Relation>
<

> <SourceURI>
mol:CHEMBL1996111

$$$$

Generated by Molecular Materials Informatics

 30 34  0  0  0  0  0  0  0  0999 V2000
   -2.0738    3.0883    0.0000 F   0  0  0  0  0  0  0  0  0  0  0  0
   -6.5738    0.4903    0.0000 F   0  0  0  0  0  0  0  0  0  0  0  0
    2.9357   -7.7907    0.0000 O   0  0  0  0  0  0  0  0  0  0  0  0
    1.7344   -0.2597    0.0000 N   0  0  0  0  0  0  0  0  0  0  0  0
    0.3079    1.7038    0.0000 N   0  0  0  0  0  0  0  0  0  0  0  0
    0.8480   -3.2646    0.0000 N   0  0  0  0  0  0  0  0  0  0  0  0
    4.3326    1.2403    0.0000 N   0  0  0  0  0  0  0  0  0  0  0  0
   -1.0827   -5.0029    0.0000 N   0  0  0  0  0  0  0  0  0  0  0  0
    1.3882   -5.8058    0.0000 N   0  0  0  0  0  0  0  0  0  0  0  0
    0.3079   -0.7233    0.0000 C   0  0  0  0  0  0  0  0  0  0  0  0
   -0.5738    0.4903    0.0000 C   0  0  0  0  0  0  0  0  0  0  0  0
    1.7344    1.2403    0.0000 C   0  0  0  0  0  0  0  0  0  0  0  0
   -0.1556   -2.1498    0.0000 C   0  0  0  0  0  0  0  0  0  0  0  0
   -2.0738    0.4903    0.0000 C   0  0  0  0  0  0  0  0  0  0  0  0
    3.0335    1.9903    0.0000 C   0  0  0  0  0  0  0  0  0  0  0  0
    3.0335   -1.0097    0.0000 C   0  0  0  0  0  0  0  0  0  0  0  0
   -2.8238    1.7893    0.0000 C   0  0  0  0  0  0  0  0  0  0  0  0
   -1.6229   -2.4617    0.0000 C   0  0  0  0  0  0  0  0  0  0  0  0
   -2.8238   -0.8087    0.0000 C   0  0  0  0  0  0  0  0  0  0  0  0
    0.3844   -4.6911    0.0000 C   0  0  0  0  0  0  0  0  0  0  0  0
    3.8591   -6.6087    0.0000 C   0  0  0  0  0  0  0  0  0  0  0  0
    4.3326   -0.2597    0.0000 C   0  0  0  0  0  0  0  0  0  0  0  0
   -4.3238    1.7893    0.0000 C   0  0  0  0  0  0  0  0  0  0  0  0
   -2.0865   -3.8884    0.0000 C   0  0  0  0  0  0  0  0  0  0  0  0
   -4.3238   -0.8087    0.0000 C   0  0  0  0  0  0  0  0  0  0  0  0
   -5.0738    0.4903    0.0000 C   0  0  0  0  0  0  0  0  0  0  0  0
    5.1311   -5.8138    0.0000 C   0  0  0  0  0  0  0  0  0  0  0  0
    5.1835   -7.3129    0.0000 C   0  0  0  0  0  0  0  0  0  0  0  0
    2.8555   -5.4940    0.0000 C   0  0  0  0  0  0  0  0  0  0  0  0
    3.0335    3.4903    0.0000 C   0  0  0  0  0  0  0  0  0  0  0  0
  1 17  1  0  0  0  0
  2 26  1  0  0  0  0
  3 21  1  0  0  0  0
  4 10  1  0  0  0  0
  4 12  1  0  0  0  0
  4 16  1  0  0  0  0
  5 11  1  0  0  0  0
  5 12  2  0  0  0  0
  6 13  1  0  0  0  0
  6 20  2  0  0  0  0
  7 15  2  0  0  0  0
  7 22  1  0  0  0  0
  8 20  1  0  0  0  0
  8 24  2  0  0  0  0
  9 20  1  0  0  0  0
  9 29  1  0  0  0  0
 10 11  2  0  0  0  0
 10 13  1  0  0  0  0
 11 14  1  0  0  0  0
 12 15  1  0  0  0  0
 13 18  2  0  0  0  0
 14 17  1  0  0  0  0
 14 19  2  0  0  0  0
 15 30  1  0  0  0  0
 16 22  2  0  0  0  0
 17 23  2  0  0  0  0
 18 24  1  0  0  0  0
 19 25  1  0  0  0  0
 21 27  1  0  0  0  0
 21 28  1  0  0  0  0
 21 29  1  0  0  0  0
 23 26  1  0  0  0  0
 25 26  2  0  0  0  0
 27 28  1  0  0  0  0
M  END
> <Value>
5.899998417198648

> <Relation>
<

> <SourceURI>
mol:CHEMBL1965589

$$$$

Generated by Molecular Materials Informatics

 27 29  0  0  0  0  0  0  0  0999 V2000
   -4.4364   -9.8812    0.0000 F   0  0  0  0  0  0  0  0  0  0  0  0
   -2.9364   -8.3813    0.0000 F   0  0  0  0  0  0  0  0  0  0  0  0
   -5.9364   -8.3813    0.0000 F   0  0  0  0  0  0  0  0  0  0  0  0
   -3.1373   -1.6313    0.0000 O   0  0  0  0  0  0  0  0  0  0  0  0
   -0.5393   -1.6313    0.0000 N   0  0  0  0  0  0  0  0  0  0  0  0
   -3.1373   -6.1312    0.0000 N   0  0  0  0  0  0  0  0  0  0  0  0
   -0.5393    2.8687    0.0000 N   0  0  0  0  0  0  0  0  0  0  0  0
   -1.8384   -3.8813    0.0000 N   0  0  0  0  0  0  0  0  0  0  0  0
    0.7597    0.6188    0.0000 C   0  0  0  0  0  0  0  0  0  0  0  0
   -0.5393   -0.1313    0.0000 C   0  0  0  0  0  0  0  0  0  0  0  0
    0.7597    2.1188    0.0000 C   0  0  0  0  0  0  0  0  0  0  0  0
   -4.4364   -6.8813    0.0000 C   0  0  0  0  0  0  0  0  0  0  0  0
   -4.4364   -8.3813    0.0000 C   0  0  0  0  0  0  0  0  0  0  0  0
    2.0587   -0.1313    0.0000 C   0  0  0  0  0  0  0  0  0  0  0  0
   -3.1373   -4.6312    0.0000 C   0  0  0  0  0  0  0  0  0  0  0  0
    3.3577    0.6188    0.0000 C   0  0  0  0  0  0  0  0  0  0  0  0
   -1.8384   -2.3813    0.0000 C   0  0  0  0  0  0  0  0  0  0  0  0
   -1.8384    0.6188    0.0000 C   0  0  0  0  0  0  0  0  0  0  0  0
    2.0587    2.8687    0.0000 C   0  0  0  0  0  0  0  0  0  0  0  0
   -5.7355   -6.1312    0.0000 C   0  0  0  0  0  0  0  0  0  0  0  0
    3.3577    2.1188    0.0000 C   0  0  0  0  0  0  0  0  0  0  0  0
   -1.8384    2.1188    0.0000 C   0  0  0  0  0  0  0  0  0  0  0  0
   -4.4364   -3.8813    0.0000 C   0  0  0  0  0  0  0  0  0  0  0  0
   -5.7355   -4.6312    0.0000 C   0  0  0  0  0  0  0  0  0  0  0  0
    4.6568   -0.1313    0.0000 C   0  0  0  0  0  0  0  0  0  0  0  0
    5.9559   -0.8813    0.0000 C   0  0  0  0  0  0  0  0  0  0  0  0
    7.2548   -1.6313    0.0000 C   0  0  0  0  0  0  0  0  0  0  0  0
  1 13  1  0  0  0  0
  2 13  1  0  0  0  0
  3 13  1  0  0  0  0
  4 17  2  0  0  0  0
  5 10  1  0  0  0  0
  5 17  1  0  0  0  0
  6 12  2  0  0  0  0
  6 15  1  0  0  0  0
  7 11  1  0  0  0  0
  7 22  2  0  0  0  0
  8 15  1  0  0  0  0
  8 17  1  0  0  0  0
  9 10  1  0  0  0  0
  9 11  1  0  0  0  0
  9 14  2  0  0  0  0
 10 18  2  0  0  0  0
 11 19  2  0  0  0  0
 12 13  1  0  0  0  0
 12 20  1  0  0  0  0
 14 16  1  0  0  0  0
 15 23  2  0  0  0  0
 16 21  2  0  0  0  0
 16 25  1  0  0  0  0
 18 22  1  0  0  0  0
 19 21  1  0  0  0  0
 20 24  2  0  0  0  0
 23 24  1  0  0  0  0
 25 26  3  0  0  0  0
 26 27  1  0  0  0  0
M  END
> <Value>
5.300000202445418

> <Relation>
<

> <SourceURI>
mol:CHEMBL2007375

$$$$

Generated by Molecular Materials Informatics

 26 27  0  0  0  0  0  0  0  0999 V2000
    4.7738    9.5062    0.0000 O   0  0  0  0  0  0  0  0  0  0  0  0
   -6.9172    5.7563    0.0000 O   0  0  0  0  0  0  0  0  0  0  0  0
   -8.2162    8.0062    0.0000 N   0  0  0  0  0  0  0  0  0  0  0  0
    6.0728    7.2563    0.0000 N   0  0  0  0  0  0  0  0  0  0  0  0
  -12.1132    7.2563    0.0000 N   0  0  0  0  0  0  0  0  0  0  0  0
    9.9698    8.0062    0.0000 N   0  0  0  0  0  0  0  0  0  0  0  0
    3.4747    7.2563    0.0000 N   0  0  0  0  0  0  0  0  0  0  0  0
   -5.6183    8.0062    0.0000 N   0  0  0  0  0  0  0  0  0  0  0  0
   -9.5153    7.2563    0.0000 C   0  0  0  0  0  0  0  0  0  0  0  0
    7.3719    8.0062    0.0000 C   0  0  0  0  0  0  0  0  0  0  0  0
    4.7738    8.0062    0.0000 C   0  0  0  0  0  0  0  0  0  0  0  0
   -6.9172    7.2563    0.0000 C   0  0  0  0  0  0  0  0  0  0  0  0
  -10.8141    8.0062    0.0000 C   0  0  0  0  0  0  0  0  0  0  0  0
    8.6707    7.2563    0.0000 C   0  0  0  0  0  0  0  0  0  0  0  0
   -9.5153    5.7563    0.0000 C   0  0  0  0  0  0  0  0  0  0  0  0
    7.3719    9.5062    0.0000 C   0  0  0  0  0  0  0  0  0  0  0  0
  -10.8141    5.0063    0.0000 C   0  0  0  0  0  0  0  0  0  0  0  0
    8.6707   10.2562    0.0000 C   0  0  0  0  0  0  0  0  0  0  0  0
  -12.1132    5.7563    0.0000 C   0  0  0  0  0  0  0  0  0  0  0  0
    9.9698    9.5062    0.0000 C   0  0  0  0  0  0  0  0  0  0  0  0
    2.1758    8.0062    0.0000 C   0  0  0  0  0  0  0  0  0  0  0  0
   -4.3192    7.2563    0.0000 C   0  0  0  0  0  0  0  0  0  0  0  0
    0.8768    7.2563    0.0000 C   0  0  0  0  0  0  0  0  0  0  0  0
   -3.0202    8.0062    0.0000 C   0  0  0  0  0  0  0  0  0  0  0  0
   -0.4223    8.0062    0.0000 C   0  0  0  0  0  0  0  0  0  0  0  0
   -1.7211    7.2563    0.0000 C   0  0  0  0  0  0  0  0  0  0  0  0
  1 11  2  0  0  0  0
  2 12  2  0  0  0  0
  3  9  1  0  0  0  0
  3 12  1  0  0  0  0
  4 10  1  0  0  0  0
  4 11  1  0  0  0  0
  5 13  2  0  0  0  0
  5 19  1  0  0  0  0
  6 14  2  0  0  0  0
  6 20  1  0  0  0  0
  7 11  1  0  0  0  0
  7 21  1  0  0  0  0
  8 12  1  0  0  0  0
  8 22  1  0  0  0  0
  9 13  1  0  0  0  0
  9 15  2  0  0  0  0
 10 14  1  0  0  0  0
 10 16  2  0  0  0  0
 15 17  1  0  0  0  0
 16 18  1  0  0  0  0
 17 19  2  0  0  0  0
 18 20  2  0  0  0  0
 21 23  1  0  0  0  0
 22 24  1  0  0  0  0
 23 25  1  0  0  0  0
 24 26  1  0  0  0  0
 25 26  1  0  0  0  0
M  END
> <Value>
5.899998417198648

> <Relation>
<

> <SourceURI>
mol:CHEMBL1998193

$$$$

Generated by Molecular Materials Informatics

 11 12  0  0  0  0  0  0  0  0999 V2000
    4.1807   -1.9414    0.0000 Br  0  0  0  0  0  0  0  0  0  0  0  0
   -1.6064   -3.0815    0.0000 O   0  0  0  0  0  0  0  0  0  0  0  0
   -1.1430    0.7721    0.0000 N   0  0  0  0  0  0  0  0  0  0  0  0
   -2.0246   -0.4414    0.0000 N   0  0  0  0  0  0  0  0  0  0  0  0
    0.2836   -1.1914    0.0000 C   0  0  0  0  0  0  0  0  0  0  0  0
    0.2836    0.3086    0.0000 C   0  0  0  0  0  0  0  0  0  0  0  0
   -1.1430   -1.6550    0.0000 C   0  0  0  0  0  0  0  0  0  0  0  0
    1.5827   -1.9414    0.0000 C   0  0  0  0  0  0  0  0  0  0  0  0
    1.5827    1.0586    0.0000 C   0  0  0  0  0  0  0  0  0  0  0  0
    2.8818   -1.1914    0.0000 C   0  0  0  0  0  0  0  0  0  0  0  0
    2.8818    0.3086    0.0000 C   0  0  0  0  0  0  0  0  0  0  0  0
  1 10  1  0  0  0  0
  2  7  2  0  0  0  0
  3  4  1  0  0  0  0
  3  6  1  0  0  0  0
  4  7  1  0  0  0  0
  5  6  1  0  0  0  0
  5  7  1  0  0  0  0
  5  8  2  0  0  0  0
  6  9  2  0  0  0  0
  8 10  1  0  0  0  0
  9 11  1  0  0  0  0
 10 11  2  0  0  0  0
M  END
> <Value>
5.100000128334196

> <Relation>
=

> <SourceURI>
mol:CHEMBL2001613

$$$$

Generated by Molecular Materials Informatics

 33 38  0  0  0  0  0  0  0  0999 V2000
   -0.8014    3.3923    0.0000 C   0  0  0  0  0  0  0  0  0  0  0  0
    0.6986    3.3923    0.0000 C   0  0  0  0  0  0  0  0  0  0  0  0
    1.5850    2.1801    0.0000 C   0  0  0  0  0  0  0  0  0  0  0  0
   -1.2634    4.8241    0.0000 C   0  0  0  0  0  0  0  0  0  0  0  0
   -1.5514    2.0968    0.0000 C   0  0  0  0  0  0  0  0  0  0  0  0
    1.1684    4.8241    0.0000 C   0  0  0  0  0  0  0  0  0  0  0  0
   -0.0514    5.7028    0.0000 N   0  0  0  0  0  0  0  0  0  0  0  0
   -1.5514   -0.5017    0.0000 C   0  0  0  0  0  0  0  0  0  0  0  0
   -0.8014    0.7937    0.0000 N   0  0  0  0  0  0  0  0  0  0  0  0
   -3.0514   -0.5017    0.0000 N   0  0  0  0  0  0  0  0  0  0  0  0
    1.1986    0.7332    0.0000 C   0  0  0  0  0  0  0  0  0  0  0  0
   -0.8014   -1.8048    0.0000 N   0  0  0  0  0  0  0  0  0  0  0  0
   -3.0514    2.0968    0.0000 C   0  0  0  0  0  0  0  0  0  0  0  0
    3.0775    2.2559    0.0000 C   0  0  0  0  0  0  0  0  0  0  0  0
    2.4563   -0.0850    0.0000 N   0  0  0  0  0  0  0  0  0  0  0  0
   -3.8014    0.7937    0.0000 C   0  0  0  0  0  0  0  0  0  0  0  0
    3.6154    0.8619    0.0000 C   0  0  0  0  0  0  0  0  0  0  0  0
    0.6986   -4.4032    0.0000 N   0  0  0  0  0  0  0  0  0  0  0  0
   -2.6877    5.2861    0.0000 O   0  0  0  0  0  0  0  0  0  0  0  0
    2.5926    5.2861    0.0000 O   0  0  0  0  0  0  0  0  0  0  0  0
   -1.5514   -3.1003    0.0000 C   0  0  0  0  0  0  0  0  0  0  0  0
    0.6986   -1.8048    0.0000 C   0  0  0  0  0  0  0  0  0  0  0  0
    1.4486   -3.1003    0.0000 C   0  0  0  0  0  0  0  0  0  0  0  0
   -0.8014   -4.4032    0.0000 C   0  0  0  0  0  0  0  0  0  0  0  0
   -3.8014    3.3923    0.0000 C   0  0  0  0  0  0  0  0  0  0  0  0
    4.0244    3.4225    0.0000 C   0  0  0  0  0  0  0  0  0  0  0  0
    1.4486   -5.6986    0.0000 C   0  0  0  0  0  0  0  0  0  0  0  0
   -5.3014    0.7937    0.0000 C   0  0  0  0  0  0  0  0  0  0  0  0
    5.1003    0.6270    0.0000 C   0  0  0  0  0  0  0  0  0  0  0  0
   -5.3014    3.3923    0.0000 C   0  0  0  0  0  0  0  0  0  0  0  0
    5.5094    3.1877    0.0000 C   0  0  0  0  0  0  0  0  0  0  0  0
   -6.0514    2.0968    0.0000 C   0  0  0  0  0  0  0  0  0  0  0  0
    6.0472    1.7937    0.0000 C   0  0  0  0  0  0  0  0  0  0  0  0
  2  1  2  0  0  0  0
  3  2  1  0  0  0  0
  4  1  1  0  0  0  0
  5  1  1  0  0  0  0
  6  2  1  0  0  0  0
  7  4  1  0  0  0  0
  8  9  1  0  0  0  0
  9  5  2  0  0  0  0
 10 16  1  0  0  0  0
 11  3  2  0  0  0  0
 12  8  1  0  0  0  0
 13  5  1  0  0  0  0
 14  3  1  0  0  0  0
 15 11  1  0  0  0  0
 16 13  2  0  0  0  0
 17 14  2  0  0  0  0
 18 23  1  0  0  0  0
 19  4  2  0  0  0  0
 20  6  2  0  0  0  0
 21 12  1  0  0  0  0
 22 12  1  0  0  0  0
 23 22  1  0  0  0  0
 24 21  1  0  0  0  0
 25 13  1  0  0  0  0
 26 14  1  0  0  0  0
 27 18  1  0  0  0  0
 28 16  1  0  0  0  0
 29 17  1  0  0  0  0
 30 25  2  0  0  0  0
 31 26  2  0  0  0  0
 32 30  1  0  0  0  0
 33 31  1  0  0  0  0
  7  6  1  0  0  0  0
 17 15  1  0  0  0  0
  8 10  2  0  0  0  0
 28 32  2  0  0  0  0
 33 29  2  0  0  0  0
 18 24  1  0  0  0  0
M  END
> <Value>
5.499999678657065

> <Relation>
<

> <SourceURI>
mol:CHEMBL565612

$$$$

Generated by Molecular Materials Informatics

 22 25  0  0  0  0  0  0  0  0999 V2000
   -2.1546   -5.3919    0.0000 O   0  0  0  0  0  0  0  0  0  0  0  0
    4.9597   -1.2706    0.0000 O   0  0  0  0  0  0  0  0  0  0  0  0
   -4.3964   -3.9362    0.0000 N   0  0  0  0  0  0  0  0  0  0  0  0
   -0.3638    1.4428    0.0000 N   0  0  0  0  0  0  0  0  0  0  0  0
   -2.2945   -2.7225    0.0000 C   0  0  0  0  0  0  0  0  0  0  0  0
   -3.4092   -1.7189    0.0000 C   0  0  0  0  0  0  0  0  0  0  0  0
   -0.3638   -0.9842    0.0000 C   0  0  0  0  0  0  0  0  0  0  0  0
    1.0627   -0.5206    0.0000 C   0  0  0  0  0  0  0  0  0  0  0  0
   -4.7082   -2.4689    0.0000 C   0  0  0  0  0  0  0  0  0  0  0  0
   -2.9046   -4.0929    0.0000 C   0  0  0  0  0  0  0  0  0  0  0  0
    1.0627    0.9794    0.0000 C   0  0  0  0  0  0  0  0  0  0  0  0
   -0.8272   -2.4107    0.0000 C   0  0  0  0  0  0  0  0  0  0  0  0
   -1.2454    0.2294    0.0000 C   0  0  0  0  0  0  0  0  0  0  0  0
    2.3618   -1.2706    0.0000 C   0  0  0  0  0  0  0  0  0  0  0  0
   -3.4092   -0.2190    0.0000 C   0  0  0  0  0  0  0  0  0  0  0  0
    3.6608   -0.5206    0.0000 C   0  0  0  0  0  0  0  0  0  0  0  0
    2.3618    1.7293    0.0000 C   0  0  0  0  0  0  0  0  0  0  0  0
   -6.0073   -1.7189    0.0000 C   0  0  0  0  0  0  0  0  0  0  0  0
    3.6608    0.9794    0.0000 C   0  0  0  0  0  0  0  0  0  0  0  0
   -4.7082    0.5310    0.0000 C   0  0  0  0  0  0  0  0  0  0  0  0
   -6.0073   -0.2190    0.0000 C   0  0  0  0  0  0  0  0  0  0  0  0
    6.2588   -0.5206    0.0000 C   0  0  0  0  0  0  0  0  0  0  0  0
  1 10  2  0  0  0  0
  2 16  1  0  0  0  0
  2 22  1  0  0  0  0
  3  9  1  0  0  0  0
  3 10  1  0  0  0  0
  4 11  1  0  0  0  0
  4 13  1  0  0  0  0
  5  6  1  0  0  0  0
  5 10  1  0  0  0  0
  5 12  2  0  0  0  0
  6  9  1  0  0  0  0
  6 15  2  0  0  0  0
  7  8  1  0  0  0  0
 12  7  1  0  0  0  0
  7 13  2  0  0  0  0
  8 11  1  0  0  0  0
  8 14  2  0  0  0  0
  9 18  2  0  0  0  0
 11 17  2  0  0  0  0
 14 16  1  0  0  0  0
 15 20  1  0  0  0  0
 16 19  2  0  0  0  0
 17 19  1  0  0  0  0
 18 21  1  0  0  0  0
 20 21  2  0  0  0  0
M  END
> <Value>
5.300000202445418

> <Relation>
<

> <SourceURI>
mol:CHEMBL1997275

$$$$

Generated by Molecular Materials Informatics

 29 33  0  0  0  0  0  0  0  0999 V2000
   -3.7099    6.1749    0.0000 S   0  0  0  0  0  0  0  0  0  0  0  0
    0.6680   -3.9473    0.0000 O   0  0  0  0  0  0  0  0  0  0  0  0
   -1.0407    7.8147    0.0000 O   0  0  0  0  0  0  0  0  0  0  0  0
   -6.9634    3.7612    0.0000 N   0  0  0  0  0  0  0  0  0  0  0  0
    0.6680   -1.5203    0.0000 N   0  0  0  0  0  0  0  0  0  0  0  0
   -1.7136   -2.7337    0.0000 N   0  0  0  0  0  0  0  0  0  0  0  0
   -6.9634    6.3593    0.0000 N   0  0  0  0  0  0  0  0  0  0  0  0
    0.2584    5.5647    0.0000 N   0  0  0  0  0  0  0  0  0  0  0  0
   -3.9635    3.7612    0.0000 C   0  0  0  0  0  0  0  0  0  0  0  0
   -4.7135    5.0602    0.0000 C   0  0  0  0  0  0  0  0  0  0  0  0
   -4.7135    2.4621    0.0000 C   0  0  0  0  0  0  0  0  0  0  0  0
   -2.3395    5.5647    0.0000 C   0  0  0  0  0  0  0  0  0  0  0  0
   -2.4964    4.0730    0.0000 C   0  0  0  0  0  0  0  0  0  0  0  0
   -6.2134    5.0602    0.0000 C   0  0  0  0  0  0  0  0  0  0  0  0
   -3.9635    1.1632    0.0000 C   0  0  0  0  0  0  0  0  0  0  0  0
   -6.2134    2.4621    0.0000 C   0  0  0  0  0  0  0  0  0  0  0  0
   -1.0407    6.3147    0.0000 C   0  0  0  0  0  0  0  0  0  0  0  0
   -0.2136   -2.7337    0.0000 C   0  0  0  0  0  0  0  0  0  0  0  0
    2.0945   -3.4837    0.0000 C   0  0  0  0  0  0  0  0  0  0  0  0
    2.0945   -1.9837    0.0000 C   0  0  0  0  0  0  0  0  0  0  0  0
   -2.4635    1.1632    0.0000 C   0  0  0  0  0  0  0  0  0  0  0  0
   -4.7135   -0.1358    0.0000 C   0  0  0  0  0  0  0  0  0  0  0  0
   -2.4635   -1.4349    0.0000 C   0  0  0  0  0  0  0  0  0  0  0  0
   -1.7136   -0.1358    0.0000 C   0  0  0  0  0  0  0  0  0  0  0  0
   -3.9635   -1.4349    0.0000 C   0  0  0  0  0  0  0  0  0  0  0  0
    3.3936   -4.2337    0.0000 C   0  0  0  0  0  0  0  0  0  0  0  0
    3.3936   -1.2338    0.0000 C   0  0  0  0  0  0  0  0  0  0  0  0
    4.6926   -3.4837    0.0000 C   0  0  0  0  0  0  0  0  0  0  0  0
    4.6926   -1.9837    0.0000 C   0  0  0  0  0  0  0  0  0  0  0  0
  1 10  1  0  0  0  0
  1 12  1  0  0  0  0
  2 18  1  0  0  0  0
  2 19  1  0  0  0  0
  3 17  2  0  0  0  0
  4 14  1  0  0  0  0
  4 16  2  0  0  0  0
  5 18  2  0  0  0  0
  5 20  1  0  0  0  0
  6 18  1  0  0  0  0
  6 23  1  0  0  0  0
  7 14  1  0  0  0  0
  8 17  1  0  0  0  0
  9 10  1  0  0  0  0
  9 11  2  0  0  0  0
  9 13  1  0  0  0  0
 10 14  2  0  0  0  0
 11 15  1  0  0  0  0
 11 16  1  0  0  0  0
 12 13  2  0  0  0  0
 12 17  1  0  0  0  0
 15 21  2  0  0  0  0
 15 22  1  0  0  0  0
 19 20  1  0  0  0  0
 19 26  2  0  0  0  0
 20 27  2  0  0  0  0
 21 24  1  0  0  0  0
 22 25  2  0  0  0  0
 23 24  2  0  0  0  0
 23 25  1  0  0  0  0
 26 28  1  0  0  0  0
 27 29  1  0  0  0  0
 28 29  2  0  0  0  0
M  END
> <Value>
5.300000202445418

> <Relation>
<

> <SourceURI>
mol:CHEMBL1993904

$$$$

Generated by Molecular Materials Informatics

 24 27  0  0  0  0  0  0  0  0999 V2000
   -5.0107    3.5221    0.0000 Cl  0  0  0  0  0  0  0  0  0  0  0  0
   -0.6090    2.5866    0.0000 N   0  0  0  0  0  0  0  0  0  0  0  0
   -1.1492   -2.3817    0.0000 N   0  0  0  0  0  0  0  0  0  0  0  0
   -2.5398    4.3250    0.0000 N   0  0  0  0  0  0  0  0  0  0  0  0
    1.5764   -2.6683    0.0000 N   0  0  0  0  0  0  0  0  0  0  0  0
   -0.0689    5.1279    0.0000 N   0  0  0  0  0  0  0  0  0  0  0  0
    1.9384    7.3574    0.0000 N   0  0  0  0  0  0  0  0  0  0  0  0
   -1.1492    0.0452    0.0000 C   0  0  0  0  0  0  0  0  0  0  0  0
    0.2773   -0.4183    0.0000 C   0  0  0  0  0  0  0  0  0  0  0  0
   -1.6129    1.4719    0.0000 C   0  0  0  0  0  0  0  0  0  0  0  0
    0.2773   -1.9183    0.0000 C   0  0  0  0  0  0  0  0  0  0  0  0
   -2.0309   -1.1683    0.0000 C   0  0  0  0  0  0  0  0  0  0  0  0
   -1.0727    4.0132    0.0000 C   0  0  0  0  0  0  0  0  0  0  0  0
   -3.0800    1.7837    0.0000 C   0  0  0  0  0  0  0  0  0  0  0  0
   -3.5436    3.2103    0.0000 C   0  0  0  0  0  0  0  0  0  0  0  0
    1.5764    0.3317    0.0000 C   0  0  0  0  0  0  0  0  0  0  0  0
    1.3982    4.8159    0.0000 C   0  0  0  0  0  0  0  0  0  0  0  0
    2.8753   -0.4183    0.0000 C   0  0  0  0  0  0  0  0  0  0  0  0
    2.8753   -1.9183    0.0000 C   0  0  0  0  0  0  0  0  0  0  0  0
    2.4021    5.9306    0.0000 C   0  0  0  0  0  0  0  0  0  0  0  0
    1.8619    3.3894    0.0000 C   0  0  0  0  0  0  0  0  0  0  0  0
    3.8691    5.6188    0.0000 C   0  0  0  0  0  0  0  0  0  0  0  0
    3.3290    3.0776    0.0000 C   0  0  0  0  0  0  0  0  0  0  0  0
    4.3328    4.1923    0.0000 C   0  0  0  0  0  0  0  0  0  0  0  0
  1 15  1  0  0  0  0
  2 10  2  0  0  0  0
  2 13  1  0  0  0  0
  3 11  1  0  0  0  0
  3 12  1  0  0  0  0
  4 13  2  0  0  0  0
  4 15  1  0  0  0  0
  5 11  2  0  0  0  0
  5 19  1  0  0  0  0
  6 13  1  0  0  0  0
  6 17  1  0  0  0  0
  7 20  1  0  0  0  0
  8  9  1  0  0  0  0
  8 10  1  0  0  0  0
  8 12  2  0  0  0  0
  9 11  1  0  0  0  0
  9 16  2  0  0  0  0
 10 14  1  0  0  0  0
 14 15  2  0  0  0  0
 16 18  1  0  0  0  0
 17 20  1  0  0  0  0
 17 21  1  0  0  0  0
 18 19  2  0  0  0  0
 20 22  1  0  0  0  0
 21 23  1  0  0  0  0
 22 24  1  0  0  0  0
 23 24  1  0  0  0  0
M  END
> <Value>
7.100015437450609

> <Relation>
=

> <SourceURI>
mol:CHEMBL1994438

$$$$

Generated by Molecular Materials Informatics

 25 27  0  0  0  0  0  0  0  0999 V2000
    5.2414   -0.1313    0.0000 Cl  0  0  0  0  0  0  0  0  0  0  0  0
   -3.8519   -9.8812    0.0000 F   0  0  0  0  0  0  0  0  0  0  0  0
   -5.3519   -8.3813    0.0000 F   0  0  0  0  0  0  0  0  0  0  0  0
   -2.3519   -8.3813    0.0000 F   0  0  0  0  0  0  0  0  0  0  0  0
   -2.5528   -1.6313    0.0000 O   0  0  0  0  0  0  0  0  0  0  0  0
   -2.5528   -6.1312    0.0000 N   0  0  0  0  0  0  0  0  0  0  0  0
    0.0452   -1.6313    0.0000 N   0  0  0  0  0  0  0  0  0  0  0  0
    0.0452    2.8687    0.0000 N   0  0  0  0  0  0  0  0  0  0  0  0
   -1.2539   -3.8813    0.0000 N   0  0  0  0  0  0  0  0  0  0  0  0
    1.3443    0.6188    0.0000 C   0  0  0  0  0  0  0  0  0  0  0  0
    0.0452   -0.1313    0.0000 C   0  0  0  0  0  0  0  0  0  0  0  0
    1.3443    2.1188    0.0000 C   0  0  0  0  0  0  0  0  0  0  0  0
   -3.8519   -6.8813    0.0000 C   0  0  0  0  0  0  0  0  0  0  0  0
   -3.8519   -8.3813    0.0000 C   0  0  0  0  0  0  0  0  0  0  0  0
   -2.5528   -4.6312    0.0000 C   0  0  0  0  0  0  0  0  0  0  0  0
    2.6432   -0.1313    0.0000 C   0  0  0  0  0  0  0  0  0  0  0  0
   -1.2539   -2.3813    0.0000 C   0  0  0  0  0  0  0  0  0  0  0  0
   -1.2539    0.6188    0.0000 C   0  0  0  0  0  0  0  0  0  0  0  0
    2.6432    2.8687    0.0000 C   0  0  0  0  0  0  0  0  0  0  0  0
    3.9423    0.6188    0.0000 C   0  0  0  0  0  0  0  0  0  0  0  0
   -5.1510   -6.1312    0.0000 C   0  0  0  0  0  0  0  0  0  0  0  0
   -1.2539    2.1188    0.0000 C   0  0  0  0  0  0  0  0  0  0  0  0
   -3.8519   -3.8813    0.0000 C   0  0  0  0  0  0  0  0  0  0  0  0
    3.9423    2.1188    0.0000 C   0  0  0  0  0  0  0  0  0  0  0  0
   -5.1510   -4.6312    0.0000 C   0  0  0  0  0  0  0  0  0  0  0  0
  1 20  1  0  0  0  0
  2 14  1  0  0  0  0
  3 14  1  0  0  0  0
  4 14  1  0  0  0  0
  5 17  2  0  0  0  0
  6 13  1  0  0  0  0
  6 15  2  0  0  0  0
  7 11  1  0  0  0  0
  7 17  1  0  0  0  0
  8 12  1  0  0  0  0
  8 22  2  0  0  0  0
  9 15  1  0  0  0  0
  9 17  1  0  0  0  0
 10 11  1  0  0  0  0
 10 12  1  0  0  0  0
 10 16  2  0  0  0  0
 11 18  2  0  0  0  0
 12 19  2  0  0  0  0
 13 14  1  0  0  0  0
 13 21  2  0  0  0  0
 15 23  1  0  0  0  0
 16 20  1  0  0  0  0
 18 22  1  0  0  0  0
 19 24  1  0  0  0  0
 20 24  2  0  0  0  0
 21 25  1  0  0  0  0
 23 25  2  0  0  0  0
M  END
> <Value>
5.300000202445418

> <Relation>
=

> <SourceURI>
mol:CHEMBL1967513

$$$$

Generated by Molecular Materials Informatics

 25 28  0  0  0  0  0  0  0  0999 V2000
    5.5306   -2.1965    0.0000 O   0  0  0  0  0  0  0  0  0  0  0  0
   -0.6747   -0.6965    0.0000 N   0  0  0  0  0  0  0  0  0  0  0  0
    0.2069   -1.9100    0.0000 N   0  0  0  0  0  0  0  0  0  0  0  0
    2.9326   -2.1965    0.0000 N   0  0  0  0  0  0  0  0  0  0  0  0
   -9.5235    5.2413    0.0000 N   0  0  0  0  0  0  0  0  0  0  0  0
    1.6335    0.0535    0.0000 C   0  0  0  0  0  0  0  0  0  0  0  0
    0.2069    0.5169    0.0000 C   0  0  0  0  0  0  0  0  0  0  0  0
    1.6335   -1.4465    0.0000 C   0  0  0  0  0  0  0  0  0  0  0  0
   -0.2567    1.9437    0.0000 C   0  0  0  0  0  0  0  0  0  0  0  0
    2.9326    0.8035    0.0000 C   0  0  0  0  0  0  0  0  0  0  0  0
    4.2315   -1.4465    0.0000 C   0  0  0  0  0  0  0  0  0  0  0  0
    4.2315    0.0535    0.0000 C   0  0  0  0  0  0  0  0  0  0  0  0
   -1.7238    2.2555    0.0000 C   0  0  0  0  0  0  0  0  0  0  0  0
   -2.1875    3.6820    0.0000 C   0  0  0  0  0  0  0  0  0  0  0  0
    0.7471    3.0584    0.0000 C   0  0  0  0  0  0  0  0  0  0  0  0
   -3.6545    3.9939    0.0000 C   0  0  0  0  0  0  0  0  0  0  0  0
   -1.1836    4.7968    0.0000 C   0  0  0  0  0  0  0  0  0  0  0  0
    2.9326    2.3035    0.0000 C   0  0  0  0  0  0  0  0  0  0  0  0
    0.2835    4.4850    0.0000 C   0  0  0  0  0  0  0  0  0  0  0  0
   -4.6584    2.8791    0.0000 C   0  0  0  0  0  0  0  0  0  0  0  0
   -4.1182    5.4206    0.0000 C   0  0  0  0  0  0  0  0  0  0  0  0
   -6.5891    4.6177    0.0000 C   0  0  0  0  0  0  0  0  0  0  0  0
   -6.1255    3.1911    0.0000 C   0  0  0  0  0  0  0  0  0  0  0  0
   -5.5855    5.7324    0.0000 C   0  0  0  0  0  0  0  0  0  0  0  0
   -8.0564    4.9295    0.0000 C   0  0  0  0  0  0  0  0  0  0  0  0
  1 11  1  0  0  0  0
  2  3  1  0  0  0  0
  2  7  2  0  0  0  0
  3  8  1  0  0  0  0
  4  8  1  0  0  0  0
  4 11  2  0  0  0  0
  5 25  3  0  0  0  0
  6  7  1  0  0  0  0
  6  8  2  0  0  0  0
  6 10  1  0  0  0  0
  7  9  1  0  0  0  0
  9 13  1  0  0  0  0
  9 15  2  0  0  0  0
 10 12  2  0  0  0  0
 10 18  1  0  0  0  0
 11 12  1  0  0  0  0
 13 14  2  0  0  0  0
 14 16  1  0  0  0  0
 14 17  1  0  0  0  0
 15 19  1  0  0  0  0
 16 20  2  0  0  0  0
 16 21  1  0  0  0  0
 17 19  2  0  0  0  0
 20 23  1  0  0  0  0
 21 24  2  0  0  0  0
 22 23  2  0  0  0  0
 22 24  1  0  0  0  0
 22 25  1  0  0  0  0
M  END
> <Value>
5.300000202445418

> <Relation>
<

> <SourceURI>
mol:CHEMBL2000724

$$$$

Generated by Molecular Materials Informatics

 29 32  0  0  0  0  0  0  0  0999 V2000
    2.9948    9.5207    0.0000 F   0  0  0  0  0  0  0  0  0  0  0  0
    4.2939    4.2708    0.0000 O   0  0  0  0  0  0  0  0  0  0  0  0
    9.4898    7.2708    0.0000 O   0  0  0  0  0  0  0  0  0  0  0  0
   -1.0298   -4.4427    0.0000 N   0  0  0  0  0  0  0  0  0  0  0  0
   -1.9114   -3.2291    0.0000 N   0  0  0  0  0  0  0  0  0  0  0  0
   -1.4933   -0.5891    0.0000 N   0  0  0  0  0  0  0  0  0  0  0  0
    1.6958    4.2708    0.0000 N   0  0  0  0  0  0  0  0  0  0  0  0
    2.9948    6.5208    0.0000 N   0  0  0  0  0  0  0  0  0  0  0  0
    0.3967   -2.4791    0.0000 C   0  0  0  0  0  0  0  0  0  0  0  0
    1.6958   -1.7291    0.0000 C   0  0  0  0  0  0  0  0  0  0  0  0
    0.3967   -3.9791    0.0000 C   0  0  0  0  0  0  0  0  0  0  0  0
   -1.0298   -2.0156    0.0000 C   0  0  0  0  0  0  0  0  0  0  0  0
    1.6958   -0.2291    0.0000 C   0  0  0  0  0  0  0  0  0  0  0  0
    2.9948   -2.4791    0.0000 C   0  0  0  0  0  0  0  0  0  0  0  0
    1.6958   -4.7290    0.0000 C   0  0  0  0  0  0  0  0  0  0  0  0
    0.3967    0.5209    0.0000 C   0  0  0  0  0  0  0  0  0  0  0  0
    2.9948    0.5209    0.0000 C   0  0  0  0  0  0  0  0  0  0  0  0
    2.9948   -3.9791    0.0000 C   0  0  0  0  0  0  0  0  0  0  0  0
    1.6958    2.7708    0.0000 C   0  0  0  0  0  0  0  0  0  0  0  0
    4.2939    7.2708    0.0000 C   0  0  0  0  0  0  0  0  0  0  0  0
    0.3967    2.0209    0.0000 C   0  0  0  0  0  0  0  0  0  0  0  0
    2.9948    2.0209    0.0000 C   0  0  0  0  0  0  0  0  0  0  0  0
    4.2939    8.7708    0.0000 C   0  0  0  0  0  0  0  0  0  0  0  0
    2.9948    5.0208    0.0000 C   0  0  0  0  0  0  0  0  0  0  0  0
    5.5928    6.5208    0.0000 C   0  0  0  0  0  0  0  0  0  0  0  0
    6.8919    7.2708    0.0000 C   0  0  0  0  0  0  0  0  0  0  0  0
    5.5928    9.5207    0.0000 C   0  0  0  0  0  0  0  0  0  0  0  0
    6.8919    8.7708    0.0000 C   0  0  0  0  0  0  0  0  0  0  0  0
    8.1910    6.5208    0.0000 C   0  0  0  0  0  0  0  0  0  0  0  0
  1 23  1  0  0  0  0
  2 24  2  0  0  0  0
  3 29  1  0  0  0  0
  4  5  1  0  0  0  0
  4 11  1  0  0  0  0
  5 12  2  0  0  0  0
  6 12  1  0  0  0  0
  7 19  1  0  0  0  0
  7 24  1  0  0  0  0
  8 20  1  0  0  0  0
  8 24  1  0  0  0  0
  9 10  2  0  0  0  0
  9 11  1  0  0  0  0
  9 12  1  0  0  0  0
 10 13  1  0  0  0  0
 10 14  1  0  0  0  0
 11 15  2  0  0  0  0
 13 16  2  0  0  0  0
 13 17  1  0  0  0  0
 14 18  2  0  0  0  0
 15 18  1  0  0  0  0
 16 21  1  0  0  0  0
 17 22  2  0  0  0  0
 19 21  2  0  0  0  0
 19 22  1  0  0  0  0
 20 23  1  0  0  0  0
 20 25  2  0  0  0  0
 23 27  2  0  0  0  0
 25 26  1  0  0  0  0
 26 28  2  0  0  0  0
 26 29  1  0  0  0  0
 27 28  1  0  0  0  0
M  END
> <Value>
5.899998417198648

> <Relation>
<

> <SourceURI>
mol:CHEMBL1985311

$$$$

Generated by Molecular Materials Informatics

 21 23  0  0  0  0  0  0  0  0999 V2000
    4.3192    1.8561    0.0000 Cl  0  0  0  0  0  0  0  0  0  0  0  0
    1.7211    3.3561    0.0000 O   0  0  0  0  0  0  0  0  0  0  0  0
   -0.8768    1.8561    0.0000 N   0  0  0  0  0  0  0  0  0  0  0  0
    3.0202   -3.3937    0.0000 N   0  0  0  0  0  0  0  0  0  0  0  0
    0.4223   -0.3938    0.0000 C   0  0  0  0  0  0  0  0  0  0  0  0
    0.4223    1.1061    0.0000 C   0  0  0  0  0  0  0  0  0  0  0  0
    1.7211   -1.1438    0.0000 C   0  0  0  0  0  0  0  0  0  0  0  0
    1.7211    1.8561    0.0000 C   0  0  0  0  0  0  0  0  0  0  0  0
    3.0202    1.1061    0.0000 C   0  0  0  0  0  0  0  0  0  0  0  0
    3.0202   -0.3938    0.0000 C   0  0  0  0  0  0  0  0  0  0  0  0
    1.7211   -2.6437    0.0000 C   0  0  0  0  0  0  0  0  0  0  0  0
   -0.8768   -1.1438    0.0000 C   0  0  0  0  0  0  0  0  0  0  0  0
   -2.1758   -0.3938    0.0000 C   0  0  0  0  0  0  0  0  0  0  0  0
   -2.1758    1.1061    0.0000 C   0  0  0  0  0  0  0  0  0  0  0  0
    3.0202   -4.8937    0.0000 C   0  0  0  0  0  0  0  0  0  0  0  0
    4.3192   -5.6436    0.0000 C   0  0  0  0  0  0  0  0  0  0  0  0
    1.7211   -5.6436    0.0000 C   0  0  0  0  0  0  0  0  0  0  0  0
    4.3192   -2.6437    0.0000 C   0  0  0  0  0  0  0  0  0  0  0  0
    4.3192   -7.1436    0.0000 C   0  0  0  0  0  0  0  0  0  0  0  0
    1.7211   -7.1436    0.0000 C   0  0  0  0  0  0  0  0  0  0  0  0
    3.0202   -7.8936    0.0000 C   0  0  0  0  0  0  0  0  0  0  0  0
  1  9  1  0  0  0  0
  2  8  1  0  0  0  0
  3  6  2  0  0  0  0
  3 14  1  0  0  0  0
  4 11  1  0  0  0  0
  4 15  1  0  0  0  0
  4 18  1  0  0  0  0
  5  6  1  0  0  0  0
  5  7  1  0  0  0  0
  5 12  2  0  0  0  0
  6  8  1  0  0  0  0
  7 10  2  0  0  0  0
  7 11  1  0  0  0  0
  8  9  2  0  0  0  0
  9 10  1  0  0  0  0
 12 13  1  0  0  0  0
 13 14  2  0  0  0  0
 15 16  1  0  0  0  0
 15 17  1  0  0  0  0
 16 19  1  0  0  0  0
 17 20  1  0  0  0  0
 19 21  1  0  0  0  0
 20 21  1  0  0  0  0
M  END
> <Value>
5.300000202445418

> <Relation>
<

> <SourceURI>
mol:CHEMBL1982413

$$$$

Generated by Molecular Materials Informatics

 26 30  0  0  0  0  0  0  0  0999 V2000
   -3.2426   -0.4803    0.0000 O   0  0  0  0  0  0  0  0  0  0  0  0
    2.8958    3.5625    0.0000 O   0  0  0  0  0  0  0  0  0  0  0  0
    1.0366   -2.5591    0.0000 N   0  0  0  0  0  0  0  0  0  0  0  0
   -2.0174    1.8110    0.0000 N   0  0  0  0  0  0  0  0  0  0  0  0
    4.6423    1.7181    0.0000 N   0  0  0  0  0  0  0  0  0  0  0  0
    5.2562    0.3494    0.0000 N   0  0  0  0  0  0  0  0  0  0  0  0
    1.9510   -0.3108    0.0000 C   0  0  0  0  0  0  0  0  0  0  0  0
    1.9917    1.1887    0.0000 C   0  0  0  0  0  0  0  0  0  0  0  0
    0.6770   -1.1028    0.0000 C   0  0  0  0  0  0  0  0  0  0  0  0
    3.0978   -1.2778    0.0000 C   0  0  0  0  0  0  0  0  0  0  0  0
   -4.6142    1.7263    0.0000 C   0  0  0  0  0  0  0  0  0  0  0  0
   -6.1135    1.6774    0.0000 C   0  0  0  0  0  0  0  0  0  0  0  0
   -0.6947    1.1038    0.0000 C   0  0  0  0  0  0  0  0  0  0  0  0
    0.5792    1.8956    0.0000 C   0  0  0  0  0  0  0  0  0  0  0  0
   -0.6458   -0.3956    0.0000 C   0  0  0  0  0  0  0  0  0  0  0  0
   -3.2915    1.0190    0.0000 C   0  0  0  0  0  0  0  0  0  0  0  0
    3.1896    2.0916    0.0000 C   0  0  0  0  0  0  0  0  0  0  0  0
   -5.4062    3.0002    0.0000 C   0  0  0  0  0  0  0  0  0  0  0  0
    2.5327   -2.6672    0.0000 C   0  0  0  0  0  0  0  0  0  0  0  0
   -7.3874    0.8854    0.0000 C   0  0  0  0  0  0  0  0  0  0  0  0
    4.5687   -0.9839    0.0000 C   0  0  0  0  0  0  0  0  0  0  0  0
   -7.3385   -0.6137    0.0000 C   0  0  0  0  0  0  0  0  0  0  0  0
   -8.7103    1.5927    0.0000 C   0  0  0  0  0  0  0  0  0  0  0  0
   -8.6125   -1.4058    0.0000 C   0  0  0  0  0  0  0  0  0  0  0  0
   -9.9842    0.8008    0.0000 C   0  0  0  0  0  0  0  0  0  0  0  0
   -9.9353   -0.6985    0.0000 C   0  0  0  0  0  0  0  0  0  0  0  0
  1 16  2  0  0  0  0
  2 17  2  0  0  0  0
  3  9  1  0  0  0  0
  3 19  1  0  0  0  0
  4 13  1  0  0  0  0
  4 16  1  0  0  0  0
  5  6  1  0  0  0  0
  5 17  1  0  0  0  0
  6 21  2  0  0  0  0
  7  8  2  0  0  0  0
  7  9  1  0  0  0  0
  7 10  1  0  0  0  0
  8 14  1  0  0  0  0
  8 17  1  0  0  0  0
  9 15  2  0  0  0  0
 10 19  2  0  0  0  0
 10 21  1  0  0  0  0
 11 12  1  0  0  0  0
 11 16  1  0  0  0  0
 11 18  1  0  0  0  0
 12 18  1  0  0  0  0
 12 20  1  0  0  0  0
 13 14  2  0  0  0  0
 13 15  1  0  0  0  0
 20 22  2  0  0  0  0
 20 23  1  0  0  0  0
 22 24  1  0  0  0  0
 23 25  2  0  0  0  0
 24 26  2  0  0  0  0
 25 26  1  0  0  0  0
M  END
> <Value>
5.899998417198648

> <Relation>
<

> <SourceURI>
mol:CHEMBL1969502

$$$$

Generated by Molecular Materials Informatics

 35 40  0  0  0  0  0  0  0  0999 V2000
   -3.4665    5.9401    0.0000 O   0  0  0  0  0  0  0  0  0  0  0  0
    0.3949    0.0363    0.0000 N   0  0  0  0  0  0  0  0  0  0  0  0
    3.1206   -0.2503    0.0000 N   0  0  0  0  0  0  0  0  0  0  0  0
    4.4195    1.9997    0.0000 N   0  0  0  0  0  0  0  0  0  0  0  0
    3.1206    4.2497    0.0000 N   0  0  0  0  0  0  0  0  0  0  0  0
   -1.4592   -5.6701    0.0000 N   0  0  0  0  0  0  0  0  0  0  0  0
    1.8215    1.9997    0.0000 C   0  0  0  0  0  0  0  0  0  0  0  0
    1.8215    0.4997    0.0000 C   0  0  0  0  0  0  0  0  0  0  0  0
    0.3949    2.4632    0.0000 C   0  0  0  0  0  0  0  0  0  0  0  0
   -0.4867    1.2497    0.0000 C   0  0  0  0  0  0  0  0  0  0  0  0
    3.1206    2.7497    0.0000 C   0  0  0  0  0  0  0  0  0  0  0  0
   -0.0687    3.8899    0.0000 C   0  0  0  0  0  0  0  0  0  0  0  0
   -0.0687   -1.3905    0.0000 C   0  0  0  0  0  0  0  0  0  0  0  0
   -1.5358    4.2017    0.0000 C   0  0  0  0  0  0  0  0  0  0  0  0
    4.4195    0.4997    0.0000 C   0  0  0  0  0  0  0  0  0  0  0  0
    0.9351   -2.5052    0.0000 C   0  0  0  0  0  0  0  0  0  0  0  0
   -1.5358   -1.7023    0.0000 C   0  0  0  0  0  0  0  0  0  0  0  0
    0.9351    5.0046    0.0000 C   0  0  0  0  0  0  0  0  0  0  0  0
   -1.9994    5.6283    0.0000 C   0  0  0  0  0  0  0  0  0  0  0  0
   -0.9956   -4.2436    0.0000 C   0  0  0  0  0  0  0  0  0  0  0  0
    0.4715   -3.9318    0.0000 C   0  0  0  0  0  0  0  0  0  0  0  0
   -1.9994   -3.1288    0.0000 C   0  0  0  0  0  0  0  0  0  0  0  0
    0.4715    6.4312    0.0000 C   0  0  0  0  0  0  0  0  0  0  0  0
   -0.9956    6.7430    0.0000 C   0  0  0  0  0  0  0  0  0  0  0  0
   -0.5776   -6.8838    0.0000 C   0  0  0  0  0  0  0  0  0  0  0  0
   -2.8858   -6.1338    0.0000 C   0  0  0  0  0  0  0  0  0  0  0  0
   -4.4703    4.8254    0.0000 C   0  0  0  0  0  0  0  0  0  0  0  0
   -1.4592   -8.0972    0.0000 C   0  0  0  0  0  0  0  0  0  0  0  0
   -2.8858   -7.6338    0.0000 C   0  0  0  0  0  0  0  0  0  0  0  0
   -5.9374    5.1374    0.0000 C   0  0  0  0  0  0  0  0  0  0  0  0
   -6.9413    4.0226    0.0000 C   0  0  0  0  0  0  0  0  0  0  0  0
   -6.4011    6.5639    0.0000 C   0  0  0  0  0  0  0  0  0  0  0  0
   -8.4085    4.3344    0.0000 C   0  0  0  0  0  0  0  0  0  0  0  0
   -7.8684    6.8757    0.0000 C   0  0  0  0  0  0  0  0  0  0  0  0
   -8.8720    5.7610    0.0000 C   0  0  0  0  0  0  0  0  0  0  0  0
  1 19  1  0  0  0  0
  1 27  1  0  0  0  0
  2  8  1  0  0  0  0
  2 10  1  0  0  0  0
  2 13  1  0  0  0  0
  3  8  1  0  0  0  0
  3 15  2  0  0  0  0
  4 11  2  0  0  0  0
  4 15  1  0  0  0  0
  5 11  1  0  0  0  0
  6 20  1  0  0  0  0
  6 25  1  0  0  0  0
  6 26  1  0  0  0  0
  7  8  2  0  0  0  0
  7  9  1  0  0  0  0
  7 11  1  0  0  0  0
  9 10  2  0  0  0  0
  9 12  1  0  0  0  0
 12 14  1  0  0  0  0
 12 18  2  0  0  0  0
 13 16  1  0  0  0  0
 13 17  1  0  0  0  0
 14 19  2  0  0  0  0
 16 21  1  0  0  0  0
 17 22  1  0  0  0  0
 18 23  1  0  0  0  0
 19 24  1  0  0  0  0
 20 21  1  0  0  0  0
 20 22  1  0  0  0  0
 23 24  2  0  0  0  0
 25 28  1  0  0  0  0
 26 29  1  0  0  0  0
 27 30  1  0  0  0  0
 28 29  1  0  0  0  0
 30 31  2  0  0  0  0
 30 32  1  0  0  0  0
 31 33  1  0  0  0  0
 32 34  2  0  0  0  0
 33 35  2  0  0  0  0
 34 35  1  0  0  0  0
M  END
> <Value>
5.899998417198648

> <Relation>
<

> <SourceURI>
mol:CHEMBL1965910

$$$$

Generated by Molecular Materials Informatics

 22 25  0  0  0  0  0  0  0  0999 V2000
    0.5035   -0.3034    0.0000 C   0  0  0  0  0  0  0  0  0  0  0  0
    0.5015   -1.8075    0.0000 C   0  0  0  0  0  0  0  0  0  0  0  0
    1.8010   -2.5580    0.0000 C   0  0  0  0  0  0  0  0  0  0  0  0
    1.7976    0.4470    0.0000 C   0  0  0  0  0  0  0  0  0  0  0  0
    3.0982   -0.2967    0.0000 C   0  0  0  0  0  0  0  0  0  0  0  0
    3.0987   -1.7991    0.0000 C   0  0  0  0  0  0  0  0  0  0  0  0
    5.4106   -1.0473    0.0000 N   0  0  0  0  0  0  0  0  0  0  0  0
    4.5270    0.1679    0.0000 C   0  0  0  0  0  0  0  0  0  0  0  0
   -0.7882    0.4541    0.0000 C   0  0  0  0  0  0  0  0  0  0  0  0
   -0.9453    1.9456    0.0000 N   0  0  0  0  0  0  0  0  0  0  0  0
   -2.1580   -0.1563    0.0000 C   0  0  0  0  0  0  0  0  0  0  0  0
   -3.1621    0.9579    0.0000 N   0  0  0  0  0  0  0  0  0  0  0  0
   -2.4146    2.2583    0.0000 C   0  0  0  0  0  0  0  0  0  0  0  0
   -3.1630    3.5489    0.0000 N   0  0  0  0  0  0  0  0  0  0  0  0
   -4.6618    3.5502    0.0000 C   0  0  0  0  0  0  0  0  0  0  0  0
   -5.4094    2.2496    0.0000 C   0  0  0  0  0  0  0  0  0  0  0  0
   -4.6580    0.9477    0.0000 C   0  0  0  0  0  0  0  0  0  0  0  0
   -3.8959   -2.0877    0.0000 C   0  0  0  0  0  0  0  0  0  0  0  0
   -5.0107   -1.0843    0.0000 C   0  0  0  0  0  0  0  0  0  0  0  0
   -4.2074   -3.5548    0.0000 C   0  0  0  0  0  0  0  0  0  0  0  0
    4.5266   -2.2591    0.0000 N   0  0  0  0  0  0  0  0  0  0  0  0
   -2.4695   -1.6236    0.0000 N   0  0  0  0  0  0  0  0  0  0  0  0
  1  2  2  0  0  0  0
  2  3  1  0  0  0  0
  3  6  2  0  0  0  0
  5  4  2  0  0  0  0
  4  1  1  0  0  0  0
  5  6  1  0  0  0  0
  7  8  2  0  0  0  0
  8  5  1  0  0  0  0
  9 10  1  0  0  0  0
 10 13  2  0  0  0  0
 12 11  1  0  0  0  0
 11  9  2  0  0  0  0
  1  9  1  0  0  0  0
 12 13  1  0  0  0  0
 12 17  1  0  0  0  0
 13 14  1  0  0  0  0
 14 15  2  0  0  0  0
 15 16  1  0  0  0  0
 16 17  2  0  0  0  0
 18 19  1  0  0  0  0
 18 20  1  0  0  0  0
  6 21  1  0  0  0  0
  7 21  1  0  0  0  0
 11 22  1  0  0  0  0
 18 22  1  0  0  0  0
M  END
> <Value>
6.599997654072044

> <Relation>
=

> <SourceURI>
mol:CHEMBL1682553

$$$$

Generated by Molecular Materials Informatics

 27 30  0  0  0  0  0  0  0  0999 V2000
   -1.1514   -3.7358    0.0000 O   0  0  0  0  0  0  0  0  0  0  0  0
   -0.5347    5.2004    0.0000 O   0  0  0  0  0  0  0  0  0  0  0  0
    1.5742   -4.0224    0.0000 N   0  0  0  0  0  0  0  0  0  0  0  0
    2.8732   -1.7724    0.0000 N   0  0  0  0  0  0  0  0  0  0  0  0
    1.5742    0.4776    0.0000 N   0  0  0  0  0  0  0  0  0  0  0  0
   -3.0056    4.3975    0.0000 N   0  0  0  0  0  0  0  0  0  0  0  0
   -2.4654    6.9387    0.0000 N   0  0  0  0  0  0  0  0  0  0  0  0
    0.2752   -1.7724    0.0000 C   0  0  0  0  0  0  0  0  0  0  0  0
   -1.1514   -1.3089    0.0000 C   0  0  0  0  0  0  0  0  0  0  0  0
    0.2752   -3.2724    0.0000 C   0  0  0  0  0  0  0  0  0  0  0  0
   -1.6150    0.1178    0.0000 C   0  0  0  0  0  0  0  0  0  0  0  0
    1.5742   -1.0224    0.0000 C   0  0  0  0  0  0  0  0  0  0  0  0
   -2.0330   -2.5224    0.0000 C   0  0  0  0  0  0  0  0  0  0  0  0
   -3.0821    0.4296    0.0000 C   0  0  0  0  0  0  0  0  0  0  0  0
   -0.6112    1.2325    0.0000 C   0  0  0  0  0  0  0  0  0  0  0  0
    2.8732   -3.2724    0.0000 C   0  0  0  0  0  0  0  0  0  0  0  0
   -2.5419    2.9709    0.0000 C   0  0  0  0  0  0  0  0  0  0  0  0
   -3.5458    1.8562    0.0000 C   0  0  0  0  0  0  0  0  0  0  0  0
   -1.0748    2.6591    0.0000 C   0  0  0  0  0  0  0  0  0  0  0  0
   -2.0018    5.5122    0.0000 C   0  0  0  0  0  0  0  0  0  0  0  0
   -1.4618    8.0535    0.0000 C   0  0  0  0  0  0  0  0  0  0  0  0
   -1.9252    9.4802    0.0000 C   0  0  0  0  0  0  0  0  0  0  0  0
   -0.9216   10.5949    0.0000 C   0  0  0  0  0  0  0  0  0  0  0  0
    0.0055    7.7416    0.0000 C   0  0  0  0  0  0  0  0  0  0  0  0
    0.5457   10.2829    0.0000 C   0  0  0  0  0  0  0  0  0  0  0  0
    1.0093    8.8564    0.0000 C   0  0  0  0  0  0  0  0  0  0  0  0
   -1.3850   12.0215    0.0000 C   0  0  0  0  0  0  0  0  0  0  0  0
  1 10  1  0  0  0  0
  1 13  1  0  0  0  0
  2 20  2  0  0  0  0
  3 10  2  0  0  0  0
  3 16  1  0  0  0  0
  4 12  1  0  0  0  0
  4 16  2  0  0  0  0
  5 12  1  0  0  0  0
  6 17  1  0  0  0  0
  6 20  1  0  0  0  0
  7 20  1  0  0  0  0
  7 21  1  0  0  0  0
  8  9  1  0  0  0  0
  8 10  1  0  0  0  0
  8 12  2  0  0  0  0
  9 11  1  0  0  0  0
  9 13  2  0  0  0  0
 11 14  2  0  0  0  0
 11 15  1  0  0  0  0
 14 18  1  0  0  0  0
 15 19  2  0  0  0  0
 17 18  2  0  0  0  0
 17 19  1  0  0  0  0
 21 22  2  0  0  0  0
 21 24  1  0  0  0  0
 22 23  1  0  0  0  0
 23 25  2  0  0  0  0
 23 27  1  0  0  0  0
 24 26  2  0  0  0  0
 25 26  1  0  0  0  0
M  END
> <Value>
5.899998417198648

> <Relation>
<

> <SourceURI>
mol:CHEMBL1983963

$$$$

Generated by Molecular Materials Informatics

 26 29  0  0  0  0  0  0  0  0999 V2000
    1.4117    2.8125    0.0000 O   0  0  0  0  0  0  0  0  0  0  0  0
    7.9070    5.0625    0.0000 O   0  0  0  0  0  0  0  0  0  0  0  0
   -2.6128   -2.1510    0.0000 N   0  0  0  0  0  0  0  0  0  0  0  0
    0.1128   -2.4375    0.0000 N   0  0  0  0  0  0  0  0  0  0  0  0
    2.7108    0.5625    0.0000 N   0  0  0  0  0  0  0  0  0  0  0  0
   -1.1863   -0.1875    0.0000 C   0  0  0  0  0  0  0  0  0  0  0  0
   -2.6128    0.2760    0.0000 C   0  0  0  0  0  0  0  0  0  0  0  0
   -1.1863   -1.6875    0.0000 C   0  0  0  0  0  0  0  0  0  0  0  0
    0.1128    0.5625    0.0000 C   0  0  0  0  0  0  0  0  0  0  0  0
   -3.0765    1.7027    0.0000 C   0  0  0  0  0  0  0  0  0  0  0  0
    1.4117   -0.1875    0.0000 C   0  0  0  0  0  0  0  0  0  0  0  0
   -3.4945   -0.9375    0.0000 C   0  0  0  0  0  0  0  0  0  0  0  0
    1.4117   -1.6875    0.0000 C   0  0  0  0  0  0  0  0  0  0  0  0
    2.7108    2.0625    0.0000 C   0  0  0  0  0  0  0  0  0  0  0  0
    4.0099    2.8125    0.0000 C   0  0  0  0  0  0  0  0  0  0  0  0
   -4.5436    2.0145    0.0000 C   0  0  0  0  0  0  0  0  0  0  0  0
   -2.0726    2.8174    0.0000 C   0  0  0  0  0  0  0  0  0  0  0  0
    4.0099    4.3125    0.0000 C   0  0  0  0  0  0  0  0  0  0  0  0
    5.3090    2.0625    0.0000 C   0  0  0  0  0  0  0  0  0  0  0  0
   -5.0072    3.4410    0.0000 C   0  0  0  0  0  0  0  0  0  0  0  0
   -2.5363    4.2440    0.0000 C   0  0  0  0  0  0  0  0  0  0  0  0
    6.6079    4.3125    0.0000 C   0  0  0  0  0  0  0  0  0  0  0  0
    5.3090    5.0625    0.0000 C   0  0  0  0  0  0  0  0  0  0  0  0
    6.6079    2.8125    0.0000 C   0  0  0  0  0  0  0  0  0  0  0  0
   -4.0034    4.5558    0.0000 C   0  0  0  0  0  0  0  0  0  0  0  0
    7.9070    6.5625    0.0000 C   0  0  0  0  0  0  0  0  0  0  0  0
  1 14  2  0  0  0  0
  2 22  1  0  0  0  0
  2 26  1  0  0  0  0
  3  8  1  0  0  0  0
  3 12  1  0  0  0  0
  4  8  2  0  0  0  0
  4 13  1  0  0  0  0
  5 11  1  0  0  0  0
  5 14  1  0  0  0  0
  6  7  1  0  0  0  0
  6  8  1  0  0  0  0
  6  9  2  0  0  0  0
  7 10  1  0  0  0  0
  7 12  2  0  0  0  0
  9 11  1  0  0  0  0
 10 16  2  0  0  0  0
 10 17  1  0  0  0  0
 11 13  2  0  0  0  0
 14 15  1  0  0  0  0
 15 18  2  0  0  0  0
 15 19  1  0  0  0  0
 16 20  1  0  0  0  0
 17 21  2  0  0  0  0
 18 23  1  0  0  0  0
 19 24  2  0  0  0  0
 20 25  2  0  0  0  0
 21 25  1  0  0  0  0
 22 23  2  0  0  0  0
 22 24  1  0  0  0  0
M  END
> <Value>
5.899998417198648

> <Relation>
<

> <SourceURI>
mol:CHEMBL1997764

$$$$

Generated by Molecular Materials Informatics

 28 31  0  0  0  0  0  0  0  0999 V2000
    6.0318   -1.9541    0.0000 O   0  0  0  0  0  0  0  0  0  0  0  0
   -3.1889    0.0093    0.0000 N   0  0  0  0  0  0  0  0  0  0  0  0
   -4.0706   -1.2041    0.0000 N   0  0  0  0  0  0  0  0  0  0  0  0
    3.4338   -4.9542    0.0000 N   0  0  0  0  0  0  0  0  0  0  0  0
    8.6300   -1.9541    0.0000 N   0  0  0  0  0  0  0  0  0  0  0  0
   -1.7624   -1.9541    0.0000 C   0  0  0  0  0  0  0  0  0  0  0  0
   -1.7624   -0.4541    0.0000 C   0  0  0  0  0  0  0  0  0  0  0  0
    0.8358   -1.9541    0.0000 C   0  0  0  0  0  0  0  0  0  0  0  0
   -0.4633   -2.7041    0.0000 C   0  0  0  0  0  0  0  0  0  0  0  0
   -3.1889   -2.4178    0.0000 C   0  0  0  0  0  0  0  0  0  0  0  0
    2.1347   -2.7041    0.0000 C   0  0  0  0  0  0  0  0  0  0  0  0
   -0.4633    0.2959    0.0000 C   0  0  0  0  0  0  0  0  0  0  0  0
    0.8358   -0.4541    0.0000 C   0  0  0  0  0  0  0  0  0  0  0  0
    3.4338   -1.9541    0.0000 C   0  0  0  0  0  0  0  0  0  0  0  0
    4.7329   -2.7041    0.0000 C   0  0  0  0  0  0  0  0  0  0  0  0
    2.1347   -4.2041    0.0000 C   0  0  0  0  0  0  0  0  0  0  0  0
    4.7329   -4.2041    0.0000 C   0  0  0  0  0  0  0  0  0  0  0  0
   -3.6524   -3.8443    0.0000 C   0  0  0  0  0  0  0  0  0  0  0  0
    6.0318   -0.4541    0.0000 C   0  0  0  0  0  0  0  0  0  0  0  0
    7.3309    0.2959    0.0000 C   0  0  0  0  0  0  0  0  0  0  0  0
    7.3309    1.7958    0.0000 C   0  0  0  0  0  0  0  0  0  0  0  0
    8.6300    2.5458    0.0000 C   0  0  0  0  0  0  0  0  0  0  0  0
    8.6300   -0.4541    0.0000 C   0  0  0  0  0  0  0  0  0  0  0  0
    8.6300    4.0458    0.0000 C   0  0  0  0  0  0  0  0  0  0  0  0
    9.9291    1.7958    0.0000 C   0  0  0  0  0  0  0  0  0  0  0  0
    9.9291    4.7958    0.0000 C   0  0  0  0  0  0  0  0  0  0  0  0
   11.2280    2.5458    0.0000 C   0  0  0  0  0  0  0  0  0  0  0  0
   11.2280    4.0458    0.0000 C   0  0  0  0  0  0  0  0  0  0  0  0
  1 15  1  0  0  0  0
  1 19  1  0  0  0  0
  2  3  1  0  0  0  0
  2  7  1  0  0  0  0
  3 10  2  0  0  0  0
  4 16  1  0  0  0  0
  4 17  2  0  0  0  0
  5 23  1  0  0  0  0
  6  7  1  0  0  0  0
  6  9  2  0  0  0  0
  6 10  1  0  0  0  0
  7 12  2  0  0  0  0
  8  9  1  0  0  0  0
  8 11  1  0  0  0  0
  8 13  2  0  0  0  0
 10 18  1  0  0  0  0
 11 14  1  0  0  0  0
 11 16  2  0  0  0  0
 12 13  1  0  0  0  0
 14 15  2  0  0  0  0
 15 17  1  0  0  0  0
 19 20  1  0  0  0  0
 20 21  1  0  0  0  0
 20 23  1  0  0  0  0
 21 22  1  0  0  0  0
 22 24  2  0  0  0  0
 22 25  1  0  0  0  0
 24 26  1  0  0  0  0
 25 27  2  0  0  0  0
 26 28  2  0  0  0  0
 27 28  1  0  0  0  0
M  END
> <Value>
6.599997654072044

> <Relation>
=

> <SourceURI>
mol:CHEMBL2000271

$$$$

Generated by Molecular Materials Informatics

 18 20  0  0  0  0  0  0  0  0999 V2000
   -1.2352    2.7152    0.0000 O   0  0  0  0  0  0  0  0  0  0  0  0
    4.5521   -1.4250    0.0000 O   0  0  0  0  0  0  0  0  0  0  0  0
   -1.6532    0.0750    0.0000 N   0  0  0  0  0  0  0  0  0  0  0  0
   -0.7716   -1.1385    0.0000 N   0  0  0  0  0  0  0  0  0  0  0  0
    1.9541   -1.4250    0.0000 N   0  0  0  0  0  0  0  0  0  0  0  0
    0.6550    0.8250    0.0000 C   0  0  0  0  0  0  0  0  0  0  0  0
    0.6550   -0.6750    0.0000 C   0  0  0  0  0  0  0  0  0  0  0  0
   -0.7716    1.2885    0.0000 C   0  0  0  0  0  0  0  0  0  0  0  0
    1.9541    1.5750    0.0000 C   0  0  0  0  0  0  0  0  0  0  0  0
   -3.1532    0.0750    0.0000 C   0  0  0  0  0  0  0  0  0  0  0  0
    3.2530   -0.6750    0.0000 C   0  0  0  0  0  0  0  0  0  0  0  0
    3.2530    0.8250    0.0000 C   0  0  0  0  0  0  0  0  0  0  0  0
   -3.9032   -1.2241    0.0000 C   0  0  0  0  0  0  0  0  0  0  0  0
   -3.9032    1.3741    0.0000 C   0  0  0  0  0  0  0  0  0  0  0  0
    1.9541    3.0750    0.0000 C   0  0  0  0  0  0  0  0  0  0  0  0
   -5.4032   -1.2241    0.0000 C   0  0  0  0  0  0  0  0  0  0  0  0
   -5.4032    1.3741    0.0000 C   0  0  0  0  0  0  0  0  0  0  0  0
   -6.1532    0.0750    0.0000 C   0  0  0  0  0  0  0  0  0  0  0  0
  1  8  2  0  0  0  0
  2 11  2  0  0  0  0
  3  4  1  0  0  0  0
  3  8  1  0  0  0  0
  3 10  1  0  0  0  0
  4  7  1  0  0  0  0
  5  7  1  0  0  0  0
  5 11  1  0  0  0  0
  6  7  2  0  0  0  0
  6  8  1  0  0  0  0
  6  9  1  0  0  0  0
  9 12  2  0  0  0  0
  9 15  1  0  0  0  0
 10 13  2  0  0  0  0
 10 14  1  0  0  0  0
 11 12  1  0  0  0  0
 13 16  1  0  0  0  0
 14 17  2  0  0  0  0
 16 18  2  0  0  0  0
 17 18  1  0  0  0  0
M  END
> <Value>
4.200000030616179

> <Relation>
=

> <SourceURI>
mol:CHEMBL1985042

$$$$

Generated by Molecular Materials Informatics

 26 28  0  0  0  0  0  0  0  0999 V2000
    5.2414   -0.1313    0.0000 F   0  0  0  0  0  0  0  0  0  0  0  0
    5.2414    2.8687    0.0000 F   0  0  0  0  0  0  0  0  0  0  0  0
   -3.8519   -9.8812    0.0000 F   0  0  0  0  0  0  0  0  0  0  0  0
   -5.3519   -8.3813    0.0000 F   0  0  0  0  0  0  0  0  0  0  0  0
   -2.3519   -8.3813    0.0000 F   0  0  0  0  0  0  0  0  0  0  0  0
   -2.5528   -1.6313    0.0000 O   0  0  0  0  0  0  0  0  0  0  0  0
    0.0452   -1.6313    0.0000 N   0  0  0  0  0  0  0  0  0  0  0  0
    0.0452    2.8687    0.0000 N   0  0  0  0  0  0  0  0  0  0  0  0
   -2.5528   -6.1312    0.0000 N   0  0  0  0  0  0  0  0  0  0  0  0
   -1.2539   -3.8813    0.0000 N   0  0  0  0  0  0  0  0  0  0  0  0
    1.3443    0.6188    0.0000 C   0  0  0  0  0  0  0  0  0  0  0  0
    1.3443    2.1188    0.0000 C   0  0  0  0  0  0  0  0  0  0  0  0
    0.0452   -0.1313    0.0000 C   0  0  0  0  0  0  0  0  0  0  0  0
    2.6432   -0.1313    0.0000 C   0  0  0  0  0  0  0  0  0  0  0  0
   -3.8519   -6.8813    0.0000 C   0  0  0  0  0  0  0  0  0  0  0  0
    3.9423    0.6188    0.0000 C   0  0  0  0  0  0  0  0  0  0  0  0
    3.9423    2.1188    0.0000 C   0  0  0  0  0  0  0  0  0  0  0  0
    2.6432    2.8687    0.0000 C   0  0  0  0  0  0  0  0  0  0  0  0
   -3.8519   -8.3813    0.0000 C   0  0  0  0  0  0  0  0  0  0  0  0
   -2.5528   -4.6312    0.0000 C   0  0  0  0  0  0  0  0  0  0  0  0
   -1.2539    0.6188    0.0000 C   0  0  0  0  0  0  0  0  0  0  0  0
   -1.2539   -2.3813    0.0000 C   0  0  0  0  0  0  0  0  0  0  0  0
   -1.2539    2.1188    0.0000 C   0  0  0  0  0  0  0  0  0  0  0  0
   -5.1510   -6.1312    0.0000 C   0  0  0  0  0  0  0  0  0  0  0  0
   -3.8519   -3.8813    0.0000 C   0  0  0  0  0  0  0  0  0  0  0  0
   -5.1510   -4.6312    0.0000 C   0  0  0  0  0  0  0  0  0  0  0  0
  1 16  1  0  0  0  0
  2 17  1  0  0  0  0
  3 19  1  0  0  0  0
  4 19  1  0  0  0  0
  5 19  1  0  0  0  0
  6 22  2  0  0  0  0
  7 13  1  0  0  0  0
  7 22  1  0  0  0  0
  8 12  2  0  0  0  0
  8 23  1  0  0  0  0
  9 15  2  0  0  0  0
  9 20  1  0  0  0  0
 10 20  1  0  0  0  0
 10 22  1  0  0  0  0
 11 12  1  0  0  0  0
 11 13  2  0  0  0  0
 11 14  1  0  0  0  0
 12 18  1  0  0  0  0
 13 21  1  0  0  0  0
 14 16  2  0  0  0  0
 15 19  1  0  0  0  0
 15 24  1  0  0  0  0
 16 17  1  0  0  0  0
 17 18  2  0  0  0  0
 20 25  2  0  0  0  0
 21 23  2  0  0  0  0
 24 26  2  0  0  0  0
 25 26  1  0  0  0  0
M  END
> <Value>
5.300000202445418

> <Relation>
<

> <SourceURI>
mol:CHEMBL1981792

$$$$

Generated by Molecular Materials Informatics

 25 28  0  0  0  0  0  0  0  0999 V2000
   -0.8350   10.7195    0.0000 S   0  0  0  0  0  0  0  0  0  0  0  0
   -4.2642    4.7352    0.0000 O   0  0  0  0  0  0  0  0  0  0  0  0
   -0.9428   -3.7102    0.0000 N   0  0  0  0  0  0  0  0  0  0  0  0
   -2.3334    2.9966    0.0000 N   0  0  0  0  0  0  0  0  0  0  0  0
    1.7828   -3.9967    0.0000 N   0  0  0  0  0  0  0  0  0  0  0  0
   -1.7932    5.5379    0.0000 N   0  0  0  0  0  0  0  0  0  0  0  0
   -0.9428   -1.2832    0.0000 C   0  0  0  0  0  0  0  0  0  0  0  0
    0.4837   -1.7467    0.0000 C   0  0  0  0  0  0  0  0  0  0  0  0
    0.4837   -3.2467    0.0000 C   0  0  0  0  0  0  0  0  0  0  0  0
   -1.4065    0.1435    0.0000 C   0  0  0  0  0  0  0  0  0  0  0  0
   -1.8245   -2.4967    0.0000 C   0  0  0  0  0  0  0  0  0  0  0  0
    1.7828   -0.9967    0.0000 C   0  0  0  0  0  0  0  0  0  0  0  0
   -0.4027    1.2582    0.0000 C   0  0  0  0  0  0  0  0  0  0  0  0
   -2.8736    0.4553    0.0000 C   0  0  0  0  0  0  0  0  0  0  0  0
   -0.8663    2.6848    0.0000 C   0  0  0  0  0  0  0  0  0  0  0  0
   -3.3372    1.8819    0.0000 C   0  0  0  0  0  0  0  0  0  0  0  0
   -2.7970    4.4232    0.0000 C   0  0  0  0  0  0  0  0  0  0  0  0
    3.0818   -1.7467    0.0000 C   0  0  0  0  0  0  0  0  0  0  0  0
    3.0818   -3.2467    0.0000 C   0  0  0  0  0  0  0  0  0  0  0  0
   -1.7167    9.5060    0.0000 C   0  0  0  0  0  0  0  0  0  0  0  0
   -2.2569    6.9645    0.0000 C   0  0  0  0  0  0  0  0  0  0  0  0
   -1.2532    8.0792    0.0000 C   0  0  0  0  0  0  0  0  0  0  0  0
   -3.1432    9.9694    0.0000 C   0  0  0  0  0  0  0  0  0  0  0  0
   -1.7167   11.9329    0.0000 C   0  0  0  0  0  0  0  0  0  0  0  0
   -3.1432   11.4695    0.0000 C   0  0  0  0  0  0  0  0  0  0  0  0
  1 20  1  0  0  0  0
  1 24  1  0  0  0  0
  2 17  2  0  0  0  0
  3  9  1  0  0  0  0
  3 11  1  0  0  0  0
  4 15  1  0  0  0  0
  4 16  1  0  0  0  0
  4 17  1  0  0  0  0
  5  9  2  0  0  0  0
  5 19  1  0  0  0  0
  6 17  1  0  0  0  0
  6 21  1  0  0  0  0
  7  8  1  0  0  0  0
  7 10  1  0  0  0  0
  7 11  2  0  0  0  0
  8  9  1  0  0  0  0
  8 12  2  0  0  0  0
 10 13  2  0  0  0  0
 10 14  1  0  0  0  0
 12 18  1  0  0  0  0
 13 15  1  0  0  0  0
 14 16  1  0  0  0  0
 18 19  2  0  0  0  0
 20 22  1  0  0  0  0
 20 23  2  0  0  0  0
 21 22  1  0  0  0  0
 23 25  1  0  0  0  0
 24 25  2  0  0  0  0
M  END
> <Value>
5.40000018605658

> <Relation>
=

> <SourceURI>
mol:CHEMBL1987535

$$$$

Generated by Molecular Materials Informatics

 27 30  0  0  0  0  0  0  0  0999 V2000
    2.9426   -7.5077    0.0000 Cl  0  0  0  0  0  0  0  0  0  0  0  0
   -6.5494    0.0406    0.0000 O   0  0  0  0  0  0  0  0  0  0  0  0
    0.3704    5.0683    0.0000 O   0  0  0  0  0  0  0  0  0  0  0  0
    1.5841   -1.8134    0.0000 N   0  0  0  0  0  0  0  0  0  0  0  0
    1.1204   -3.2401    0.0000 N   0  0  0  0  0  0  0  0  0  0  0  0
   -1.2612   -4.4536    0.0000 N   0  0  0  0  0  0  0  0  0  0  0  0
   -0.8430   -1.8134    0.0000 C   0  0  0  0  0  0  0  0  0  0  0  0
    0.3704   -0.9317    0.0000 C   0  0  0  0  0  0  0  0  0  0  0  0
   -0.3796   -3.2401    0.0000 C   0  0  0  0  0  0  0  0  0  0  0  0
   -2.2696   -1.3499    0.0000 C   0  0  0  0  0  0  0  0  0  0  0  0
    0.3704    0.5683    0.0000 C   0  0  0  0  0  0  0  0  0  0  0  0
   -3.3843   -2.3536    0.0000 C   0  0  0  0  0  0  0  0  0  0  0  0
   -2.5816    0.1174    0.0000 C   0  0  0  0  0  0  0  0  0  0  0  0
   -0.6510   -5.8239    0.0000 C   0  0  0  0  0  0  0  0  0  0  0  0
   -0.9285    1.3183    0.0000 C   0  0  0  0  0  0  0  0  0  0  0  0
    1.6695    1.3183    0.0000 C   0  0  0  0  0  0  0  0  0  0  0  0
   -4.8109   -1.8901    0.0000 C   0  0  0  0  0  0  0  0  0  0  0  0
   -4.0081    0.5808    0.0000 C   0  0  0  0  0  0  0  0  0  0  0  0
   -5.1229   -0.4228    0.0000 C   0  0  0  0  0  0  0  0  0  0  0  0
   -0.9285    2.8183    0.0000 C   0  0  0  0  0  0  0  0  0  0  0  0
    1.6695    2.8183    0.0000 C   0  0  0  0  0  0  0  0  0  0  0  0
    0.3704    3.5683    0.0000 C   0  0  0  0  0  0  0  0  0  0  0  0
    0.8408   -5.9806    0.0000 C   0  0  0  0  0  0  0  0  0  0  0  0
   -1.5329   -7.0374    0.0000 C   0  0  0  0  0  0  0  0  0  0  0  0
    1.4508   -7.3510    0.0000 C   0  0  0  0  0  0  0  0  0  0  0  0
   -0.9227   -8.4077    0.0000 C   0  0  0  0  0  0  0  0  0  0  0  0
    0.5691   -8.5645    0.0000 C   0  0  0  0  0  0  0  0  0  0  0  0
  1 25  1  0  0  0  0
  2 19  1  0  0  0  0
  3 22  1  0  0  0  0
  4  5  1  0  0  0  0
  4  8  2  0  0  0  0
  5  9  1  0  0  0  0
  6  9  1  0  0  0  0
  6 14  1  0  0  0  0
  7  8  1  0  0  0  0
  7  9  2  0  0  0  0
  7 10  1  0  0  0  0
  8 11  1  0  0  0  0
 10 12  2  0  0  0  0
 10 13  1  0  0  0  0
 11 15  2  0  0  0  0
 11 16  1  0  0  0  0
 12 17  1  0  0  0  0
 13 18  2  0  0  0  0
 14 23  1  0  0  0  0
 14 24  2  0  0  0  0
 15 20  1  0  0  0  0
 16 21  2  0  0  0  0
 17 19  2  0  0  0  0
 18 19  1  0  0  0  0
 20 22  2  0  0  0  0
 21 22  1  0  0  0  0
 23 25  2  0  0  0  0
 24 26  1  0  0  0  0
 25 27  1  0  0  0  0
 26 27  2  0  0  0  0
M  END
> <Value>
5.899998417198648

> <Relation>
=

> <SourceURI>
mol:CHEMBL1985092

$$$$

Generated by Molecular Materials Informatics

 33 36  0  0  0  0  0  0  0  0999 V2000
    0.1931   -9.0411    0.0000 F   0  0  0  0  0  0  0  0  0  0  0  0
    1.9000  -10.3009    0.0000 F   0  0  0  0  0  0  0  0  0  0  0  0
    1.4529   -7.3344    0.0000 F   0  0  0  0  0  0  0  0  0  0  0  0
    3.3206   -4.6288    0.0000 O   0  0  0  0  0  0  0  0  0  0  0  0
    0.1484    1.3483    0.0000 N   0  0  0  0  0  0  0  0  0  0  0  0
    0.1484    4.7188    0.0000 N   0  0  0  0  0  0  0  0  0  0  0  0
   -2.3234    4.5335    0.0000 N   0  0  0  0  0  0  0  0  0  0  0  0
   -3.6223    2.2836    0.0000 N   0  0  0  0  0  0  0  0  0  0  0  0
   -2.3234    0.0336    0.0000 N   0  0  0  0  0  0  0  0  0  0  0  0
    5.3517   -3.0088    0.0000 N   0  0  0  0  0  0  0  0  0  0  0  0
    5.7389   -5.5779    0.0000 N   0  0  0  0  0  0  0  0  0  0  0  0
   -1.0243    2.2836    0.0000 C   0  0  0  0  0  0  0  0  0  0  0  0
   -1.0243    3.7836    0.0000 C   0  0  0  0  0  0  0  0  0  0  0  0
    1.6108    1.6821    0.0000 C   0  0  0  0  0  0  0  0  0  0  0  0
   -2.3234    1.5336    0.0000 C   0  0  0  0  0  0  0  0  0  0  0  0
    2.5460    0.5094    0.0000 C   0  0  0  0  0  0  0  0  0  0  0  0
    2.2617    3.0336    0.0000 C   0  0  0  0  0  0  0  0  0  0  0  0
    3.1597   -8.5940    0.0000 C   0  0  0  0  0  0  0  0  0  0  0  0
    1.6764   -8.8177    0.0000 C   0  0  0  0  0  0  0  0  0  0  0  0
    4.0293    0.7328    0.0000 C   0  0  0  0  0  0  0  0  0  0  0  0
    1.9980   -0.8870    0.0000 C   0  0  0  0  0  0  0  0  0  0  0  0
    4.4166   -1.8361    0.0000 C   0  0  0  0  0  0  0  0  0  0  0  0
    1.6108    4.3850    0.0000 C   0  0  0  0  0  0  0  0  0  0  0  0
    5.1909   -6.9742    0.0000 C   0  0  0  0  0  0  0  0  0  0  0  0
   -3.6223    3.7836    0.0000 C   0  0  0  0  0  0  0  0  0  0  0  0
    3.7077   -7.1978    0.0000 C   0  0  0  0  0  0  0  0  0  0  0  0
    4.9646   -0.4399    0.0000 C   0  0  0  0  0  0  0  0  0  0  0  0
    2.9333   -2.0597    0.0000 C   0  0  0  0  0  0  0  0  0  0  0  0
    4.0949   -9.7667    0.0000 C   0  0  0  0  0  0  0  0  0  0  0  0
    4.8037   -4.4051    0.0000 C   0  0  0  0  0  0  0  0  0  0  0  0
    6.1262   -8.1469    0.0000 C   0  0  0  0  0  0  0  0  0  0  0  0
    5.5782   -9.5433    0.0000 C   0  0  0  0  0  0  0  0  0  0  0  0
   -1.0243   -0.7164    0.0000 C   0  0  0  0  0  0  0  0  0  0  0  0
  1 19  1  0  0  0  0
  2 19  1  0  0  0  0
  3 19  1  0  0  0  0
  4 30  2  0  0  0  0
  5 12  1  0  0  0  0
  5 14  2  0  0  0  0
  6 13  1  0  0  0  0
  6 23  1  0  0  0  0
  7 13  1  0  0  0  0
  7 25  2  0  0  0  0
  8 15  2  0  0  0  0
  8 25  1  0  0  0  0
  9 15  1  0  0  0  0
  9 33  1  0  0  0  0
 10 22  1  0  0  0  0
 10 30  1  0  0  0  0
 11 24  1  0  0  0  0
 11 30  1  0  0  0  0
 12 13  2  0  0  0  0
 12 15  1  0  0  0  0
 14 16  1  0  0  0  0
 14 17  1  0  0  0  0
 16 20  2  0  0  0  0
 16 21  1  0  0  0  0
 17 23  1  0  0  0  0
 18 19  1  0  0  0  0
 18 26  2  0  0  0  0
 18 29  1  0  0  0  0
 20 27  1  0  0  0  0
 21 28  2  0  0  0  0
 22 27  2  0  0  0  0
 22 28  1  0  0  0  0
 24 26  1  0  0  0  0
 24 31  2  0  0  0  0
 29 32  2  0  0  0  0
 31 32  1  0  0  0  0
M  END
> <Value>
5.899998417198648

> <Relation>
<

> <SourceURI>
mol:CHEMBL1981410

$$$$

Generated by Molecular Materials Informatics

 27 31  0  0  0  0  0  0  0  0999 V2000
    1.2904    6.2964    0.0000 Cl  0  0  0  0  0  0  0  0  0  0  0  0
   -1.4352   -0.9171    0.0000 S   0  0  0  0  0  0  0  0  0  0  0  0
    3.8884   10.7964    0.0000 O   0  0  0  0  0  0  0  0  0  0  0  0
    2.5895   -0.4536    0.0000 N   0  0  0  0  0  0  0  0  0  0  0  0
    1.2904    1.7964    0.0000 N   0  0  0  0  0  0  0  0  0  0  0  0
    1.2904   -2.7036    0.0000 N   0  0  0  0  0  0  0  0  0  0  0  0
    3.8884    1.7964    0.0000 N   0  0  0  0  0  0  0  0  0  0  0  0
    3.8884    7.7964    0.0000 N   0  0  0  0  0  0  0  0  0  0  0  0
   -0.0087   -0.4536    0.0000 C   0  0  0  0  0  0  0  0  0  0  0  0
    1.2904   -1.2036    0.0000 C   0  0  0  0  0  0  0  0  0  0  0  0
   -0.0087    1.0464    0.0000 C   0  0  0  0  0  0  0  0  0  0  0  0
    2.5895    1.0464    0.0000 C   0  0  0  0  0  0  0  0  0  0  0  0
    3.8884    3.2964    0.0000 C   0  0  0  0  0  0  0  0  0  0  0  0
    3.8884    6.2964    0.0000 C   0  0  0  0  0  0  0  0  0  0  0  0
   -1.4352    1.5100    0.0000 C   0  0  0  0  0  0  0  0  0  0  0  0
   -0.0087   -3.4536    0.0000 C   0  0  0  0  0  0  0  0  0  0  0  0
    2.5895    5.5464    0.0000 C   0  0  0  0  0  0  0  0  0  0  0  0
   -2.3169    0.2964    0.0000 C   0  0  0  0  0  0  0  0  0  0  0  0
    2.5895    4.0464    0.0000 C   0  0  0  0  0  0  0  0  0  0  0  0
    5.1875    4.0464    0.0000 C   0  0  0  0  0  0  0  0  0  0  0  0
    5.1875    5.5464    0.0000 C   0  0  0  0  0  0  0  0  0  0  0  0
   -0.7587   -4.7525    0.0000 C   0  0  0  0  0  0  0  0  0  0  0  0
   -1.5087   -3.4536    0.0000 C   0  0  0  0  0  0  0  0  0  0  0  0
    5.1875    8.5464    0.0000 C   0  0  0  0  0  0  0  0  0  0  0  0
    2.5895    8.5464    0.0000 C   0  0  0  0  0  0  0  0  0  0  0  0
    5.1875   10.0464    0.0000 C   0  0  0  0  0  0  0  0  0  0  0  0
    2.5895   10.0464    0.0000 C   0  0  0  0  0  0  0  0  0  0  0  0
  1 17  1  0  0  0  0
  2  9  1  0  0  0  0
  2 18  1  0  0  0  0
  3 26  1  0  0  0  0
  3 27  1  0  0  0  0
  4 10  1  0  0  0  0
  4 12  2  0  0  0  0
  5 11  2  0  0  0  0
  5 12  1  0  0  0  0
  6 10  1  0  0  0  0
  6 16  1  0  0  0  0
  7 12  1  0  0  0  0
  7 13  1  0  0  0  0
  8 14  1  0  0  0  0
  8 24  1  0  0  0  0
  8 25  1  0  0  0  0
  9 10  2  0  0  0  0
  9 11  1  0  0  0  0
 11 15  1  0  0  0  0
 13 19  1  0  0  0  0
 13 20  2  0  0  0  0
 14 17  1  0  0  0  0
 14 21  2  0  0  0  0
 15 18  2  0  0  0  0
 16 22  1  0  0  0  0
 16 23  1  0  0  0  0
 17 19  2  0  0  0  0
 20 21  1  0  0  0  0
 22 23  1  0  0  0  0
 24 26  1  0  0  0  0
 25 27  1  0  0  0  0
M  END
> <Value>
5.300000202445418

> <Relation>
<

> <SourceURI>
mol:CHEMBL2002586

$$$$

Generated by Molecular Materials Informatics

 32 37  0  0  0  0  0  0  0  0999 V2000
    6.7435   -4.9309    0.0000 O   0  0  0  0  0  0  0  0  0  0  0  0
    6.5582    1.0766    0.0000 N   0  0  0  0  0  0  0  0  0  0  0  0
    4.3410    0.0893    0.0000 N   0  0  0  0  0  0  0  0  0  0  0  0
    7.4853    3.9296    0.0000 N   0  0  0  0  0  0  0  0  0  0  0  0
   -1.0119    1.5811    0.0000 N   0  0  0  0  0  0  0  0  0  0  0  0
    5.0144    4.7325    0.0000 N   0  0  0  0  0  0  0  0  0  0  0  0
    5.8082   -0.2225    0.0000 C   0  0  0  0  0  0  0  0  0  0  0  0
    5.5546    2.1913    0.0000 C   0  0  0  0  0  0  0  0  0  0  0  0
    4.1842    1.5811    0.0000 C   0  0  0  0  0  0  0  0  0  0  0  0
    6.4182   -1.5928    0.0000 C   0  0  0  0  0  0  0  0  0  0  0  0
    2.8852    2.3311    0.0000 C   0  0  0  0  0  0  0  0  0  0  0  0
    6.0180    3.6178    0.0000 C   0  0  0  0  0  0  0  0  0  0  0  0
    7.2811   -3.5306    0.0000 C   0  0  0  0  0  0  0  0  0  0  0  0
    7.8187   -2.1303    0.0000 C   0  0  0  0  0  0  0  0  0  0  0  0
    5.8808   -2.9932    0.0000 C   0  0  0  0  0  0  0  0  0  0  0  0
    8.0255    1.3884    0.0000 C   0  0  0  0  0  0  0  0  0  0  0  0
    1.5861    1.5811    0.0000 C   0  0  0  0  0  0  0  0  0  0  0  0
    0.2872    2.3311    0.0000 C   0  0  0  0  0  0  0  0  0  0  0  0
    2.8852    3.8311    0.0000 C   0  0  0  0  0  0  0  0  0  0  0  0
    0.2872    3.8311    0.0000 C   0  0  0  0  0  0  0  0  0  0  0  0
    8.4889    2.8149    0.0000 C   0  0  0  0  0  0  0  0  0  0  0  0
    1.5861    4.5811    0.0000 C   0  0  0  0  0  0  0  0  0  0  0  0
    8.6814   -4.0682    0.0000 C   0  0  0  0  0  0  0  0  0  0  0  0
   -2.3109    2.3311    0.0000 C   0  0  0  0  0  0  0  0  0  0  0  0
   -1.0119    4.5811    0.0000 C   0  0  0  0  0  0  0  0  0  0  0  0
   -2.3109    3.8311    0.0000 C   0  0  0  0  0  0  0  0  0  0  0  0
   -3.6098    1.5811    0.0000 C   0  0  0  0  0  0  0  0  0  0  0  0
   -3.6098    0.0812    0.0000 C   0  0  0  0  0  0  0  0  0  0  0  0
   -4.9089    2.3311    0.0000 C   0  0  0  0  0  0  0  0  0  0  0  0
   -4.9089   -0.6688    0.0000 C   0  0  0  0  0  0  0  0  0  0  0  0
   -6.2079    1.5811    0.0000 C   0  0  0  0  0  0  0  0  0  0  0  0
   -6.2079    0.0812    0.0000 C   0  0  0  0  0  0  0  0  0  0  0  0
  1 13  1  0  0  0  0
  2  7  1  0  0  0  0
  2  8  1  0  0  0  0
  2 16  1  0  0  0  0
  3  7  2  0  0  0  0
  3  9  1  0  0  0  0
  4 12  2  0  0  0  0
  4 21  1  0  0  0  0
  5 18  1  0  0  0  0
  5 24  2  0  0  0  0
  6 12  1  0  0  0  0
  7 10  1  0  0  0  0
  8  9  2  0  0  0  0
  8 12  1  0  0  0  0
  9 11  1  0  0  0  0
 10 14  1  0  0  0  0
 10 15  1  0  0  0  0
 11 17  1  0  0  0  0
 11 19  2  0  0  0  0
 13 14  1  0  0  0  0
 13 15  1  0  0  0  0
 13 23  1  0  0  0  0
 16 21  2  0  0  0  0
 17 18  2  0  0  0  0
 18 20  1  0  0  0  0
 19 22  1  0  0  0  0
 20 22  2  0  0  0  0
 20 25  1  0  0  0  0
 24 26  1  0  0  0  0
 24 27  1  0  0  0  0
 25 26  2  0  0  0  0
 27 28  2  0  0  0  0
 27 29  1  0  0  0  0
 28 30  1  0  0  0  0
 29 31  2  0  0  0  0
 30 32  2  0  0  0  0
 31 32  1  0  0  0  0
M  END
> <Value>
5.899998417198648

> <Relation>
<

> <SourceURI>
mol:CHEMBL1996234

$$$$

Generated by Molecular Materials Informatics

 30 34  0  0  0  0  0  0  0  0999 V2000
    5.2019    1.4062    0.0000 O   0  0  0  0  0  0  0  0  0  0  0  0
   12.0219    3.2098    0.0000 N   0  0  0  0  0  0  0  0  0  0  0  0
    2.6039   -1.5937    0.0000 N   0  0  0  0  0  0  0  0  0  0  0  0
   -5.1902    2.9062    0.0000 N   0  0  0  0  0  0  0  0  0  0  0  0
    7.7998    2.9062    0.0000 N   0  0  0  0  0  0  0  0  0  0  0  0
   11.7682    0.7961    0.0000 C   0  0  0  0  0  0  0  0  0  0  0  0
   10.3979    1.4062    0.0000 C   0  0  0  0  0  0  0  0  0  0  0  0
   12.7718    1.9108    0.0000 C   0  0  0  0  0  0  0  0  0  0  0  0
    0.0058    1.4062    0.0000 C   0  0  0  0  0  0  0  0  0  0  0  0
    1.3049    0.6563    0.0000 C   0  0  0  0  0  0  0  0  0  0  0  0
   -2.5921    1.4062    0.0000 C   0  0  0  0  0  0  0  0  0  0  0  0
   -2.5921    2.9062    0.0000 C   0  0  0  0  0  0  0  0  0  0  0  0
   -1.2932    0.6563    0.0000 C   0  0  0  0  0  0  0  0  0  0  0  0
   10.5546    2.8980    0.0000 C   0  0  0  0  0  0  0  0  0  0  0  0
    0.0058    2.9062    0.0000 C   0  0  0  0  0  0  0  0  0  0  0  0
    2.6039    1.4062    0.0000 C   0  0  0  0  0  0  0  0  0  0  0  0
    3.9028    0.6563    0.0000 C   0  0  0  0  0  0  0  0  0  0  0  0
    9.0989    0.6563    0.0000 C   0  0  0  0  0  0  0  0  0  0  0  0
   12.2317   -0.6304    0.0000 C   0  0  0  0  0  0  0  0  0  0  0  0
   -1.2932    3.6562    0.0000 C   0  0  0  0  0  0  0  0  0  0  0  0
   14.2391    1.5990    0.0000 C   0  0  0  0  0  0  0  0  0  0  0  0
    1.3049   -0.8437    0.0000 C   0  0  0  0  0  0  0  0  0  0  0  0
    7.7998    1.4062    0.0000 C   0  0  0  0  0  0  0  0  0  0  0  0
   -3.8912    0.6563    0.0000 C   0  0  0  0  0  0  0  0  0  0  0  0
   -3.8912    3.6562    0.0000 C   0  0  0  0  0  0  0  0  0  0  0  0
    3.9028   -0.8437    0.0000 C   0  0  0  0  0  0  0  0  0  0  0  0
   13.6989   -0.9422    0.0000 C   0  0  0  0  0  0  0  0  0  0  0  0
   14.7025    0.1725    0.0000 C   0  0  0  0  0  0  0  0  0  0  0  0
    6.5009    0.6563    0.0000 C   0  0  0  0  0  0  0  0  0  0  0  0
   -5.1902    1.4062    0.0000 C   0  0  0  0  0  0  0  0  0  0  0  0
  1 17  1  0  0  0  0
  1 29  1  0  0  0  0
  2  8  1  0  0  0  0
  2 14  1  0  0  0  0
  3 22  2  0  0  0  0
  3 26  1  0  0  0  0
  4 25  2  0  0  0  0
  4 30  1  0  0  0  0
  5 23  1  0  0  0  0
  6  7  1  0  0  0  0
  6  8  1  0  0  0  0
  6 19  2  0  0  0  0
  7 14  2  0  0  0  0
  7 18  1  0  0  0  0
  8 21  2  0  0  0  0
  9 10  1  0  0  0  0
  9 13  1  0  0  0  0
  9 15  2  0  0  0  0
 10 16  2  0  0  0  0
 10 22  1  0  0  0  0
 11 12  1  0  0  0  0
 11 13  2  0  0  0  0
 11 24  1  0  0  0  0
 12 20  2  0  0  0  0
 12 25  1  0  0  0  0
 15 20  1  0  0  0  0
 16 17  1  0  0  0  0
 17 26  2  0  0  0  0
 18 23  1  0  0  0  0
 19 27  1  0  0  0  0
 21 28  1  0  0  0  0
 23 29  1  0  0  0  0
 24 30  2  0  0  0  0
 27 28  2  0  0  0  0
M  END
> <Value>
6.199998172182031

> <Relation>
=

> <SourceURI>
mol:CHEMBL1981133

$$$$

Generated by Molecular Materials Informatics

 27 29  0  0  0  0  0  0  0  0999 V2000
   -5.0326    6.0873    0.0000 Cl  0  0  0  0  0  0  0  0  0  0  0  0
    1.4624    9.8373    0.0000 F   0  0  0  0  0  0  0  0  0  0  0  0
   -6.6643   -1.9345    0.0000 O   0  0  0  0  0  0  0  0  0  0  0  0
   -5.0326    3.0873    0.0000 N   0  0  0  0  0  0  0  0  0  0  0  0
   -2.4346    3.0873    0.0000 N   0  0  0  0  0  0  0  0  0  0  0  0
    0.1635    3.0873    0.0000 N   0  0  0  0  0  0  0  0  0  0  0  0
   -1.1356    5.3373    0.0000 N   0  0  0  0  0  0  0  0  0  0  0  0
   -3.8192    0.7057    0.0000 N   0  0  0  0  0  0  0  0  0  0  0  0
   -4.2826   -0.7210    0.0000 N   0  0  0  0  0  0  0  0  0  0  0  0
    2.7615    6.0873    0.0000 N   0  0  0  0  0  0  0  0  0  0  0  0
   -3.7336    3.8373    0.0000 C   0  0  0  0  0  0  0  0  0  0  0  0
   -5.0326    1.5873    0.0000 C   0  0  0  0  0  0  0  0  0  0  0  0
   -1.1356    3.8373    0.0000 C   0  0  0  0  0  0  0  0  0  0  0  0
   -3.7336    5.3373    0.0000 C   0  0  0  0  0  0  0  0  0  0  0  0
   -5.7826   -0.7210    0.0000 C   0  0  0  0  0  0  0  0  0  0  0  0
   -6.2463    0.7057    0.0000 C   0  0  0  0  0  0  0  0  0  0  0  0
   -2.4346    6.0873    0.0000 C   0  0  0  0  0  0  0  0  0  0  0  0
    1.4624    3.8373    0.0000 C   0  0  0  0  0  0  0  0  0  0  0  0
    1.4624    5.3373    0.0000 C   0  0  0  0  0  0  0  0  0  0  0  0
    0.1635    6.0873    0.0000 C   0  0  0  0  0  0  0  0  0  0  0  0
    1.4624    8.3373    0.0000 C   0  0  0  0  0  0  0  0  0  0  0  0
    2.7615    7.5873    0.0000 C   0  0  0  0  0  0  0  0  0  0  0  0
    0.1635    7.5873    0.0000 C   0  0  0  0  0  0  0  0  0  0  0  0
   -8.1561   -1.7778    0.0000 C   0  0  0  0  0  0  0  0  0  0  0  0
    2.7615    3.0873    0.0000 C   0  0  0  0  0  0  0  0  0  0  0  0
   -9.0377   -2.9912    0.0000 C   0  0  0  0  0  0  0  0  0  0  0  0
   -8.7663   -0.4074    0.0000 C   0  0  0  0  0  0  0  0  0  0  0  0
  1 14  1  0  0  0  0
  2 21  1  0  0  0  0
  3 15  1  0  0  0  0
  3 24  1  0  0  0  0
  4 11  1  0  0  0  0
  4 12  1  0  0  0  0
  5 11  2  0  0  0  0
  5 13  1  0  0  0  0
  6 13  1  0  0  0  0
  6 18  1  0  0  0  0
  7 13  2  0  0  0  0
  7 17  1  0  0  0  0
  8  9  1  0  0  0  0
  8 12  2  0  0  0  0
  9 15  1  0  0  0  0
 10 19  1  0  0  0  0
 10 22  2  0  0  0  0
 11 14  1  0  0  0  0
 12 16  1  0  0  0  0
 14 17  2  0  0  0  0
 15 16  2  0  0  0  0
 18 19  1  0  0  0  0
 18 25  1  0  0  0  0
 19 20  2  0  0  0  0
 20 23  1  0  0  0  0
 21 22  1  0  0  0  0
 21 23  2  0  0  0  0
 24 26  1  0  0  0  0
 24 27  1  0  0  0  0
M  END
> <Value>
5.300000202445418

> <Relation>
<

> <SourceURI>
mol:CHEMBL2007421

$$$$

Generated by Molecular Materials Informatics

 36 40  0  0  0  0  0  0  0  0999 V2000
   10.8794   -8.4187    0.0000 S   0  0  0  0  0  0  0  0  0  0  0  0
   10.1294   -9.7178    0.0000 O   0  0  0  0  0  0  0  0  0  0  0  0
   11.6294   -7.1197    0.0000 O   0  0  0  0  0  0  0  0  0  0  0  0
    9.5803   -7.6688    0.0000 N   0  0  0  0  0  0  0  0  0  0  0  0
   14.7764  -13.6687    0.0000 N   0  0  0  0  0  0  0  0  0  0  0  0
   10.8794   -3.9188    0.0000 N   0  0  0  0  0  0  0  0  0  0  0  0
    1.7863   -1.6688    0.0000 N   0  0  0  0  0  0  0  0  0  0  0  0
    6.9824   -6.1688    0.0000 N   0  0  0  0  0  0  0  0  0  0  0  0
   12.1785   -9.1687    0.0000 C   0  0  0  0  0  0  0  0  0  0  0  0
   12.1785  -10.6687    0.0000 C   0  0  0  0  0  0  0  0  0  0  0  0
   13.4774  -11.4187    0.0000 C   0  0  0  0  0  0  0  0  0  0  0  0
    9.5803   -6.1688    0.0000 C   0  0  0  0  0  0  0  0  0  0  0  0
   13.4774  -12.9187    0.0000 C   0  0  0  0  0  0  0  0  0  0  0  0
   13.4774   -8.4187    0.0000 C   0  0  0  0  0  0  0  0  0  0  0  0
   10.8794  -11.4187    0.0000 C   0  0  0  0  0  0  0  0  0  0  0  0
   14.7764  -10.6687    0.0000 C   0  0  0  0  0  0  0  0  0  0  0  0
    8.2815   -5.4188    0.0000 C   0  0  0  0  0  0  0  0  0  0  0  0
    8.2815   -3.9188    0.0000 C   0  0  0  0  0  0  0  0  0  0  0  0
    8.2815   -8.4187    0.0000 C   0  0  0  0  0  0  0  0  0  0  0  0
   14.7764   -9.1687    0.0000 C   0  0  0  0  0  0  0  0  0  0  0  0
    6.9824   -3.1688    0.0000 C   0  0  0  0  0  0  0  0  0  0  0  0
   10.8794   -5.4188    0.0000 C   0  0  0  0  0  0  0  0  0  0  0  0
   12.1785  -13.6687    0.0000 C   0  0  0  0  0  0  0  0  0  0  0  0
   10.8794  -12.9187    0.0000 C   0  0  0  0  0  0  0  0  0  0  0  0
    9.5803   -3.1688    0.0000 C   0  0  0  0  0  0  0  0  0  0  0  0
    4.3842   -3.1688    0.0000 C   0  0  0  0  0  0  0  0  0  0  0  0
    5.6833   -3.9188    0.0000 C   0  0  0  0  0  0  0  0  0  0  0  0
    4.3842   -1.6688    0.0000 C   0  0  0  0  0  0  0  0  0  0  0  0
    6.9824   -1.6688    0.0000 C   0  0  0  0  0  0  0  0  0  0  0  0
    6.9824   -7.6688    0.0000 C   0  0  0  0  0  0  0  0  0  0  0  0
    5.6833   -0.9189    0.0000 C   0  0  0  0  0  0  0  0  0  0  0  0
    3.0854   -3.9188    0.0000 C   0  0  0  0  0  0  0  0  0  0  0  0
    3.0854   -0.9189    0.0000 C   0  0  0  0  0  0  0  0  0  0  0  0
   16.0755  -12.9187    0.0000 C   0  0  0  0  0  0  0  0  0  0  0  0
   14.7764  -15.1686    0.0000 C   0  0  0  0  0  0  0  0  0  0  0  0
    1.7863   -3.1688    0.0000 C   0  0  0  0  0  0  0  0  0  0  0  0
  1  2  2  0  0  0  0
  1  3  2  0  0  0  0
  1  4  1  0  0  0  0
  1  9  1  0  0  0  0
  4 12  1  0  0  0  0
  4 19  1  0  0  0  0
  5 13  1  0  0  0  0
  5 34  1  0  0  0  0
  5 35  1  0  0  0  0
  6 22  1  0  0  0  0
  6 25  2  0  0  0  0
  7 33  2  0  0  0  0
  7 36  1  0  0  0  0
  8 30  1  0  0  0  0
  9 10  2  0  0  0  0
  9 14  1  0  0  0  0
 10 11  1  0  0  0  0
 10 15  1  0  0  0  0
 11 13  1  0  0  0  0
 11 16  2  0  0  0  0
 12 17  1  0  0  0  0
 12 22  2  0  0  0  0
 13 23  2  0  0  0  0
 14 20  2  0  0  0  0
 15 24  2  0  0  0  0
 16 20  1  0  0  0  0
 17 18  2  0  0  0  0
 18 21  1  0  0  0  0
 18 25  1  0  0  0  0
 19 30  1  0  0  0  0
 21 27  1  0  0  0  0
 21 29  2  0  0  0  0
 23 24  1  0  0  0  0
 26 27  2  0  0  0  0
 26 28  1  0  0  0  0
 26 32  1  0  0  0  0
 28 31  2  0  0  0  0
 28 33  1  0  0  0  0
 29 31  1  0  0  0  0
 32 36  2  0  0  0  0
M  END
> <Value>
6.0

> <Relation>
=

> <SourceURI>
mol:CHEMBL1967544

$$$$

Generated by Molecular Materials Informatics

 43 47  0  0  0  0  0  0  0  0999 V2000
   -2.4357   -7.7250    0.0000 O   0  0  0  0  0  0  0  0  0  0  0  0
    1.4614   -0.9750    0.0000 O   0  0  0  0  0  0  0  0  0  0  0  0
   -8.9309   -6.9750    0.0000 O   0  0  0  0  0  0  0  0  0  0  0  0
   -7.6318  -12.2250    0.0000 O   0  0  0  0  0  0  0  0  0  0  0  0
    0.1623   -7.7250    0.0000 N   0  0  0  0  0  0  0  0  0  0  0  0
   -2.4357   -4.7250    0.0000 N   0  0  0  0  0  0  0  0  0  0  0  0
    4.0594   -0.9750    0.0000 N   0  0  0  0  0  0  0  0  0  0  0  0
   -5.0338   -4.7250    0.0000 N   0  0  0  0  0  0  0  0  0  0  0  0
   -7.6318   -9.2250    0.0000 N   0  0  0  0  0  0  0  0  0  0  0  0
    1.4614   -5.4750    0.0000 C   0  0  0  0  0  0  0  0  0  0  0  0
    2.7605   -4.7250    0.0000 C   0  0  0  0  0  0  0  0  0  0  0  0
   -1.1366   -5.4750    0.0000 C   0  0  0  0  0  0  0  0  0  0  0  0
    2.7605   -3.2250    0.0000 C   0  0  0  0  0  0  0  0  0  0  0  0
   -1.1366   -6.9750    0.0000 C   0  0  0  0  0  0  0  0  0  0  0  0
    0.1623   -4.7250    0.0000 C   0  0  0  0  0  0  0  0  0  0  0  0
    4.0594   -2.4750    0.0000 C   0  0  0  0  0  0  0  0  0  0  0  0
    1.4614   -6.9750    0.0000 C   0  0  0  0  0  0  0  0  0  0  0  0
    4.0594   -5.4750    0.0000 C   0  0  0  0  0  0  0  0  0  0  0  0
   -3.7347   -5.4750    0.0000 C   0  0  0  0  0  0  0  0  0  0  0  0
    5.3585   -3.2250    0.0000 C   0  0  0  0  0  0  0  0  0  0  0  0
    5.3585   -4.7250    0.0000 C   0  0  0  0  0  0  0  0  0  0  0  0
    2.7605   -0.2250    0.0000 C   0  0  0  0  0  0  0  0  0  0  0  0
   -6.3327   -6.9750    0.0000 C   0  0  0  0  0  0  0  0  0  0  0  0
    2.7605    1.2750    0.0000 C   0  0  0  0  0  0  0  0  0  0  0  0
   -7.6318   -7.7250    0.0000 C   0  0  0  0  0  0  0  0  0  0  0  0
   -3.7347   -6.9750    0.0000 C   0  0  0  0  0  0  0  0  0  0  0  0
    1.4614   -2.4750    0.0000 C   0  0  0  0  0  0  0  0  0  0  0  0
   -6.3327   -5.4750    0.0000 C   0  0  0  0  0  0  0  0  0  0  0  0
   -5.0338   -7.7250    0.0000 C   0  0  0  0  0  0  0  0  0  0  0  0
    2.7605    4.2750    0.0000 C   0  0  0  0  0  0  0  0  0  0  0  0
    0.1623   -9.2250    0.0000 C   0  0  0  0  0  0  0  0  0  0  0  0
    2.7605    5.7750    0.0000 C   0  0  0  0  0  0  0  0  0  0  0  0
    1.4614    2.0250    0.0000 C   0  0  0  0  0  0  0  0  0  0  0  0
    4.0594    2.0250    0.0000 C   0  0  0  0  0  0  0  0  0  0  0  0
    1.4614    3.5250    0.0000 C   0  0  0  0  0  0  0  0  0  0  0  0
    4.0594    3.5250    0.0000 C   0  0  0  0  0  0  0  0  0  0  0  0
   -8.9309   -9.9750    0.0000 C   0  0  0  0  0  0  0  0  0  0  0  0
   -6.3327   -9.9750    0.0000 C   0  0  0  0  0  0  0  0  0  0  0  0
   -8.9309  -11.4750    0.0000 C   0  0  0  0  0  0  0  0  0  0  0  0
   -6.3327  -11.4750    0.0000 C   0  0  0  0  0  0  0  0  0  0  0  0
    2.7605    7.2750    0.0000 C   0  0  0  0  0  0  0  0  0  0  0  0
    4.2605    5.7750    0.0000 C   0  0  0  0  0  0  0  0  0  0  0  0
    1.2605    5.7750    0.0000 C   0  0  0  0  0  0  0  0  0  0  0  0
  1 14  2  0  0  0  0
  2 22  2  0  0  0  0
  3 25  2  0  0  0  0
  4 39  1  0  0  0  0
  4 40  1  0  0  0  0
  5 14  1  0  0  0  0
  5 17  1  0  0  0  0
  5 31  1  0  0  0  0
  6 12  1  0  0  0  0
  6 19  1  0  0  0  0
  7 16  1  0  0  0  0
  7 22  1  0  0  0  0
  8 19  1  0  0  0  0
  8 28  2  0  0  0  0
  9 25  1  0  0  0  0
  9 37  1  0  0  0  0
  9 38  1  0  0  0  0
 10 11  1  0  0  0  0
 10 15  1  0  0  0  0
 10 17  2  0  0  0  0
 11 13  1  0  0  0  0
 11 18  2  0  0  0  0
 12 14  1  0  0  0  0
 12 15  2  0  0  0  0
 13 16  2  0  0  0  0
 13 27  1  0  0  0  0
 16 20  1  0  0  0  0
 18 21  1  0  0  0  0
 19 26  2  0  0  0  0
 20 21  2  0  0  0  0
 22 24  1  0  0  0  0
 23 25  1  0  0  0  0
 23 28  1  0  0  0  0
 23 29  2  0  0  0  0
 24 33  2  0  0  0  0
 24 34  1  0  0  0  0
 26 29  1  0  0  0  0
 30 32  1  0  0  0  0
 30 35  2  0  0  0  0
 30 36  1  0  0  0  0
 32 41  1  0  0  0  0
 32 42  1  0  0  0  0
 32 43  1  0  0  0  0
 33 35  1  0  0  0  0
 34 36  2  0  0  0  0
 37 39  1  0  0  0  0
 38 40  1  0  0  0  0
M  END
> <Value>
5.300000202445418

> <Relation>
<

> <SourceURI>
mol:CHEMBL1973138

$$$$

Generated by Molecular Materials Informatics

 30 32  0  0  0  0  0  0  0  0999 V2000
   14.3420  -19.9802    0.0000 C   0  0  0  0  0  0  0  0  0  0  0  0
   14.3420  -21.4801    0.0000 C   0  0  0  0  0  0  0  0  0  0  0  0
   16.7891  -21.4574    0.0000 C   0  0  0  0  0  0  0  0  0  0  0  0
   16.8497  -19.9043    0.0000 O   0  0  0  0  0  0  0  0  0  0  0  0
   14.3486  -15.4709    0.0000 C   0  0  0  0  0  0  0  0  0  0  0  0
   13.0511  -13.2160    0.0000 C   0  0  0  0  0  0  0  0  0  0  0  0
   13.0489  -14.7202    0.0000 C   0  0  0  0  0  0  0  0  0  0  0  0
   15.6513  -14.7194    0.0000 C   0  0  0  0  0  0  0  0  0  0  0  0
   15.6460  -13.2093    0.0000 C   0  0  0  0  0  0  0  0  0  0  0  0
   14.3453  -12.4654    0.0000 C   0  0  0  0  0  0  0  0  0  0  0  0
   14.3409  -10.9654    0.0000 Cl  0  0  0  0  0  0  0  0  0  0  0  0
   16.9515  -15.4673    0.0000 N   0  0  0  0  0  0  0  0  0  0  0  0
   18.2493  -14.7153    0.0000 C   0  0  0  0  0  0  0  0  0  0  0  0
   19.5402  -15.4589    0.0000 N   0  0  0  0  0  0  0  0  0  0  0  0
   18.2469  -13.2153    0.0000 O   0  0  0  0  0  0  0  0  0  0  0  0
   19.5098  -16.9585    0.0000 C   0  0  0  0  0  0  0  0  0  0  0  0
   18.1642  -19.1771    0.0000 C   0  0  0  0  0  0  0  0  0  0  0  0
   19.4489  -19.9547    0.0000 C   0  0  0  0  0  0  0  0  0  0  0  0
   20.7673  -19.2231    0.0000 N   0  0  0  0  0  0  0  0  0  0  0  0
   20.7916  -17.7272    0.0000 C   0  0  0  0  0  0  0  0  0  0  0  0
   18.2247  -17.7478    0.0000 N   0  0  0  0  0  0  0  0  0  0  0  0
   14.3482  -16.9709    0.0000 O   0  0  0  0  0  0  0  0  0  0  0  0
   13.0486  -19.2205    0.0000 C   0  0  0  0  0  0  0  0  0  0  0  0
   19.4542  -21.4547    0.0000 C   0  0  0  0  0  0  0  0  0  0  0  0
   19.4635  -22.9511    0.0000 N   0  0  0  0  0  0  0  0  0  0  0  0
   13.0522  -17.7160    0.0000 C   0  0  0  0  0  0  0  0  0  0  0  0
   11.7519  -12.4662    0.0000 C   0  0  0  0  0  0  0  0  0  0  0  0
   10.4529  -13.2165    0.0000 C   0  0  0  0  0  0  0  0  0  0  0  0
    9.1539  -12.4669    0.0000 C   0  0  0  0  0  0  0  0  0  0  0  0
    7.8550  -13.2171    0.0000 O   0  0  0  0  0  0  0  0  0  0  0  0
 14 16  1  0  0  0  0
 16 21  2  0  0  0  0
  8  9  1  0  0  0  0
 21 17  1  0  0  0  0
  1  2  1  0  0  0  0
 17 18  2  0  0  0  0
  9 10  2  0  0  0  0
 18 19  1  0  0  0  0
 10  6  1  0  0  0  0
 19 20  2  0  0  0  0
 20 16  1  0  0  0  0
 17  4  1  0  0  0  0
  2  3  1  0  0  0  0
 10 11  1  0  0  0  0
  5 22  1  0  0  0  0
 22 26  1  0  0  0  0
  6  7  2  0  0  0  0
 26 23  1  0  0  0  0
 23  1  1  0  0  0  0
  8 12  1  0  0  0  0
 18 24  1  0  0  0  0
  7  5  1  0  0  0  0
 24 25  3  0  0  0  0
 12 13  1  0  0  0  0
  3  4  1  0  0  0  0
  6 27  1  0  0  0  0
 13 14  1  0  0  0  0
 27 28  1  0  0  0  0
  5  8  2  0  0  0  0
 28 29  1  0  0  0  0
 13 15  2  0  0  0  0
 29 30  1  0  0  0  0
M  END
> <Value>
5.899998417198648

> <Relation>
<

> <SourceURI>
mol:CHEMBL223367

$$$$

Generated by Molecular Materials Informatics

 15 17  0  0  0  0  0  0  0  0999 V2000
   -1.7153    3.2388    0.0000 Cl  0  0  0  0  0  0  0  0  0  0  0  0
    3.7349   -3.0893    0.0000 O   0  0  0  0  0  0  0  0  0  0  0  0
    3.6538   -0.4924    0.0000 N   0  0  0  0  0  0  0  0  0  0  0  0
    1.4454   -1.8612    0.0000 N   0  0  0  0  0  0  0  0  0  0  0  0
    3.8320    1.9281    0.0000 N   0  0  0  0  0  0  0  0  0  0  0  0
    5.1105   -0.1350    0.0000 N   0  0  0  0  0  0  0  0  0  0  0  0
    2.8636    0.7825    0.0000 C   0  0  0  0  0  0  0  0  0  0  0  0
    1.3643    0.7357    0.0000 C   0  0  0  0  0  0  0  0  0  0  0  0
    0.6553   -0.5861    0.0000 C   0  0  0  0  0  0  0  0  0  0  0  0
    2.9447   -1.8142    0.0000 C   0  0  0  0  0  0  0  0  0  0  0  0
    0.5742    2.0107    0.0000 C   0  0  0  0  0  0  0  0  0  0  0  0
   -0.8440   -0.6330    0.0000 C   0  0  0  0  0  0  0  0  0  0  0  0
    5.2207    1.3610    0.0000 C   0  0  0  0  0  0  0  0  0  0  0  0
   -0.9251    1.9637    0.0000 C   0  0  0  0  0  0  0  0  0  0  0  0
   -1.6342    0.6419    0.0000 C   0  0  0  0  0  0  0  0  0  0  0  0
  1 14  1  0  0  0  0
  2 10  2  0  0  0  0
  3  6  1  0  0  0  0
  3  7  1  0  0  0  0
  3 10  1  0  0  0  0
  4  9  1  0  0  0  0
  4 10  1  0  0  0  0
  5  7  2  0  0  0  0
  5 13  1  0  0  0  0
  6 13  2  0  0  0  0
  7  8  1  0  0  0  0
  8  9  1  0  0  0  0
  8 11  2  0  0  0  0
  9 12  2  0  0  0  0
 11 14  1  0  0  0  0
 12 15  1  0  0  0  0
 14 15  2  0  0  0  0
M  END
> <Value>
4.399999967876858

> <Relation>
=

> <SourceURI>
mol:CHEMBL1992673

$$$$

Generated by Molecular Materials Informatics

 41 46  0  0  0  0  0  0  0  0999 V2000
    8.7394    0.2188    0.0000 F   0  0  0  0  0  0  0  0  0  0  0  0
    6.1414    4.7188    0.0000 F   0  0  0  0  0  0  0  0  0  0  0  0
    0.2271   -1.7243    0.0000 O   0  0  0  0  0  0  0  0  0  0  0  0
    3.7783   -7.6097    0.0000 O   0  0  0  0  0  0  0  0  0  0  0  0
   -2.2439   -0.9214    0.0000 N   0  0  0  0  0  0  0  0  0  0  0  0
   -2.6620    1.7188    0.0000 N   0  0  0  0  0  0  0  0  0  0  0  0
   -1.7804    2.9323    0.0000 N   0  0  0  0  0  0  0  0  0  0  0  0
   -3.0944   -7.7425    0.0000 N   0  0  0  0  0  0  0  0  0  0  0  0
    0.7672   -4.2656    0.0000 N   0  0  0  0  0  0  0  0  0  0  0  0
   -4.0213  -10.5956    0.0000 N   0  0  0  0  0  0  0  0  0  0  0  0
   -0.3539    0.9688    0.0000 C   0  0  0  0  0  0  0  0  0  0  0  0
   -1.7804    0.5052    0.0000 C   0  0  0  0  0  0  0  0  0  0  0  0
   -0.3539    2.4688    0.0000 C   0  0  0  0  0  0  0  0  0  0  0  0
   -1.7039   -3.4626    0.0000 C   0  0  0  0  0  0  0  0  0  0  0  0
   -0.7000   -4.5774    0.0000 C   0  0  0  0  0  0  0  0  0  0  0  0
   -1.2402   -2.0361    0.0000 C   0  0  0  0  0  0  0  0  0  0  0  0
    0.9452    0.2188    0.0000 C   0  0  0  0  0  0  0  0  0  0  0  0
    2.2443    0.9688    0.0000 C   0  0  0  0  0  0  0  0  0  0  0  0
   -2.6308   -6.3159    0.0000 C   0  0  0  0  0  0  0  0  0  0  0  0
    0.9452    3.2188    0.0000 C   0  0  0  0  0  0  0  0  0  0  0  0
   -1.1637   -6.0039    0.0000 C   0  0  0  0  0  0  0  0  0  0  0  0
   -3.1709   -3.7745    0.0000 C   0  0  0  0  0  0  0  0  0  0  0  0
    2.2443    2.4688    0.0000 C   0  0  0  0  0  0  0  0  0  0  0  0
   -3.6346   -5.2012    0.0000 C   0  0  0  0  0  0  0  0  0  0  0  0
    3.5432    0.2188    0.0000 C   0  0  0  0  0  0  0  0  0  0  0  0
    4.8423    0.9688    0.0000 C   0  0  0  0  0  0  0  0  0  0  0  0
    1.7709   -5.3803    0.0000 C   0  0  0  0  0  0  0  0  0  0  0  0
   -2.0906   -8.8572    0.0000 C   0  0  0  0  0  0  0  0  0  0  0  0
   -4.5615   -8.0543    0.0000 C   0  0  0  0  0  0  0  0  0  0  0  0
    4.8423    2.4688    0.0000 C   0  0  0  0  0  0  0  0  0  0  0  0
    6.1414    0.2188    0.0000 C   0  0  0  0  0  0  0  0  0  0  0  0
   -2.5542  -10.2837    0.0000 C   0  0  0  0  0  0  0  0  0  0  0  0
   -5.0251   -9.4808    0.0000 C   0  0  0  0  0  0  0  0  0  0  0  0
    7.4403    0.9688    0.0000 C   0  0  0  0  0  0  0  0  0  0  0  0
    6.1414    3.2188    0.0000 C   0  0  0  0  0  0  0  0  0  0  0  0
    1.3072   -6.8068    0.0000 C   0  0  0  0  0  0  0  0  0  0  0  0
    3.2382   -5.0685    0.0000 C   0  0  0  0  0  0  0  0  0  0  0  0
    7.4403    2.4688    0.0000 C   0  0  0  0  0  0  0  0  0  0  0  0
    2.3111   -7.9216    0.0000 C   0  0  0  0  0  0  0  0  0  0  0  0
    4.2418   -6.1830    0.0000 C   0  0  0  0  0  0  0  0  0  0  0  0
   -4.4849  -12.0221    0.0000 C   0  0  0  0  0  0  0  0  0  0  0  0
  1 34  1  0  0  0  0
  2 35  1  0  0  0  0
  3 16  2  0  0  0  0
  4 39  1  0  0  0  0
  4 40  1  0  0  0  0
  5 12  1  0  0  0  0
  5 16  1  0  0  0  0
  6  7  1  0  0  0  0
  6 12  2  0  0  0  0
  7 13  1  0  0  0  0
  8 19  1  0  0  0  0
  8 28  1  0  0  0  0
  8 29  1  0  0  0  0
  9 15  1  0  0  0  0
  9 27  1  0  0  0  0
 10 32  1  0  0  0  0
 10 33  1  0  0  0  0
 10 41  1  0  0  0  0
 11 12  1  0  0  0  0
 11 13  1  0  0  0  0
 11 17  2  0  0  0  0
 13 20  2  0  0  0  0
 14 15  1  0  0  0  0
 14 16  1  0  0  0  0
 14 22  2  0  0  0  0
 15 21  2  0  0  0  0
 17 18  1  0  0  0  0
 18 23  2  0  0  0  0
 18 25  1  0  0  0  0
 19 21  1  0  0  0  0
 19 24  2  0  0  0  0
 20 23  1  0  0  0  0
 22 24  1  0  0  0  0
 25 26  1  0  0  0  0
 26 30  2  0  0  0  0
 26 31  1  0  0  0  0
 27 36  1  0  0  0  0
 27 37  1  0  0  0  0
 28 32  1  0  0  0  0
 29 33  1  0  0  0  0
 30 35  1  0  0  0  0
 31 34  2  0  0  0  0
 34 38  1  0  0  0  0
 35 38  2  0  0  0  0
 36 39  1  0  0  0  0
 37 40  1  0  0  0  0
M  END
> <Value>
5.59999938302362

> <Relation>
=

> <SourceURI>
mol:CHEMBL1983268

$$$$

Generated by Molecular Materials Informatics

 28 31  0  0  0  0  0  0  0  0999 V2000
    3.1837   -1.1860    0.0000 N   0  0  0  0  0  0  0  0  0  0  0  0
    4.4716    1.0716    0.0000 C   0  0  0  0  0  0  0  0  0  0  0  0
    1.8807   -0.4360    0.0000 C   0  0  0  0  0  0  0  0  0  0  0  0
    4.4792   -0.4360    0.0000 C   0  0  0  0  0  0  0  0  0  0  0  0
    3.1610    1.8140    0.0000 C   0  0  0  0  0  0  0  0  0  0  0  0
    1.8807    1.0640    0.0000 C   0  0  0  0  0  0  0  0  0  0  0  0
    3.1837   -2.6860    0.0000 C   0  0  0  0  0  0  0  0  0  0  0  0
    5.7670    1.8367    0.0000 C   0  0  0  0  0  0  0  0  0  0  0  0
    0.5701   -1.2011    0.0000 C   0  0  0  0  0  0  0  0  0  0  0  0
    4.4792   -3.4284    0.0000 C   0  0  0  0  0  0  0  0  0  0  0  0
    0.5701    1.8140    0.0000 C   0  0  0  0  0  0  0  0  0  0  0  0
   -0.7253   -0.4511    0.0000 C   0  0  0  0  0  0  0  0  0  0  0  0
    4.4792   -4.9133    0.0000 C   0  0  0  0  0  0  0  0  0  0  0  0
    1.8807   -3.4360    0.0000 C   0  0  0  0  0  0  0  0  0  0  0  0
    3.1610    3.3140    0.0000 O   0  0  0  0  0  0  0  0  0  0  0  0
   -0.7253    1.0640    0.0000 C   0  0  0  0  0  0  0  0  0  0  0  0
    5.7519    3.3367    0.0000 O   0  0  0  0  0  0  0  0  0  0  0  0
   -4.6117   -2.6860    0.0000 N   0  0  0  0  0  0  0  0  0  0  0  0
   -2.0208   -1.2011    0.0000 C   0  0  0  0  0  0  0  0  0  0  0  0
    7.0701    1.0867    0.0000 N   0  0  0  0  0  0  0  0  0  0  0  0
    3.1837   -5.6860    0.0000 C   0  0  0  0  0  0  0  0  0  0  0  0
    5.7747   -2.6633    0.0000 Cl  0  0  0  0  0  0  0  0  0  0  0  0
    1.8807   -4.9360    0.0000 C   0  0  0  0  0  0  0  0  0  0  0  0
    3.1837   -7.1784    0.0000 O   0  0  0  0  0  0  0  0  0  0  0  0
   -3.3163   -3.4360    0.0000 C   0  0  0  0  0  0  0  0  0  0  0  0
   -4.6117   -1.1860    0.0000 C   0  0  0  0  0  0  0  0  0  0  0  0
   -2.0208   -2.6860    0.0000 C   0  0  0  0  0  0  0  0  0  0  0  0
   -3.3163   -0.4360    0.0000 C   0  0  0  0  0  0  0  0  0  0  0  0
  2  4  2  0  0  0  0
  3  1  1  0  0  0  0
  4  1  1  0  0  0  0
  5  2  1  0  0  0  0
  6  3  1  0  0  0  0
  7  1  1  0  0  0  0
  8  2  1  0  0  0  0
  9  3  2  0  0  0  0
 10  7  1  0  0  0  0
 11  6  2  0  0  0  0
 12  9  1  0  0  0  0
 13 10  2  0  0  0  0
 14  7  2  0  0  0  0
 15  5  2  0  0  0  0
 16 12  2  0  0  0  0
 17  8  2  0  0  0  0
 18 26  2  0  0  0  0
 19 12  1  0  0  0  0
 20  8  1  0  0  0  0
 21 23  2  0  0  0  0
 22 10  1  0  0  0  0
 23 14  1  0  0  0  0
 24 21  1  0  0  0  0
 25 27  2  0  0  0  0
 26 28  1  0  0  0  0
 27 19  1  0  0  0  0
 28 19  2  0  0  0  0
  5  6  1  0  0  0  0
 13 21  1  0  0  0  0
 11 16  1  0  0  0  0
 25 18  1  0  0  0  0
M  END
> <Value>
6.399996913372259

> <Relation>
=

> <SourceURI>
mol:CHEMBL340384

$$$$

Generated by Molecular Materials Informatics

 26 29  0  0  0  0  0  0  0  0999 V2000
   -5.5666    3.8431    0.0000 Cl  0  0  0  0  0  0  0  0  0  0  0  0
   -1.1650    2.9077    0.0000 N   0  0  0  0  0  0  0  0  0  0  0  0
   -1.7052   -2.0607    0.0000 N   0  0  0  0  0  0  0  0  0  0  0  0
   -3.0957    4.6460    0.0000 N   0  0  0  0  0  0  0  0  0  0  0  0
    1.0205   -2.3473    0.0000 N   0  0  0  0  0  0  0  0  0  0  0  0
   -0.6248    5.4489    0.0000 N   0  0  0  0  0  0  0  0  0  0  0  0
    5.2441    4.2015    0.0000 N   0  0  0  0  0  0  0  0  0  0  0  0
   -1.7052    0.3662    0.0000 C   0  0  0  0  0  0  0  0  0  0  0  0
   -0.2786   -0.0973    0.0000 C   0  0  0  0  0  0  0  0  0  0  0  0
   -2.1688    1.7929    0.0000 C   0  0  0  0  0  0  0  0  0  0  0  0
   -0.2786   -1.5973    0.0000 C   0  0  0  0  0  0  0  0  0  0  0  0
   -2.5868   -0.8473    0.0000 C   0  0  0  0  0  0  0  0  0  0  0  0
   -1.6286    4.3342    0.0000 C   0  0  0  0  0  0  0  0  0  0  0  0
   -3.6359    2.1047    0.0000 C   0  0  0  0  0  0  0  0  0  0  0  0
    1.0205    0.6527    0.0000 C   0  0  0  0  0  0  0  0  0  0  0  0
   -4.0996    3.5313    0.0000 C   0  0  0  0  0  0  0  0  0  0  0  0
    0.8423    5.1369    0.0000 C   0  0  0  0  0  0  0  0  0  0  0  0
    2.3194   -0.0973    0.0000 C   0  0  0  0  0  0  0  0  0  0  0  0
    2.3194   -1.5973    0.0000 C   0  0  0  0  0  0  0  0  0  0  0  0
    1.8461    6.2517    0.0000 C   0  0  0  0  0  0  0  0  0  0  0  0
    1.3059    3.7104    0.0000 C   0  0  0  0  0  0  0  0  0  0  0  0
    3.7768    4.5133    0.0000 C   0  0  0  0  0  0  0  0  0  0  0  0
    3.3132    5.9398    0.0000 C   0  0  0  0  0  0  0  0  0  0  0  0
    2.7730    3.3986    0.0000 C   0  0  0  0  0  0  0  0  0  0  0  0
    6.2477    5.3162    0.0000 C   0  0  0  0  0  0  0  0  0  0  0  0
    5.7076    2.7747    0.0000 C   0  0  0  0  0  0  0  0  0  0  0  0
  1 16  1  0  0  0  0
  2 10  2  0  0  0  0
  2 13  1  0  0  0  0
  3 11  1  0  0  0  0
  3 12  1  0  0  0  0
  4 13  2  0  0  0  0
  4 16  1  0  0  0  0
  5 11  2  0  0  0  0
  5 19  1  0  0  0  0
  6 13  1  0  0  0  0
  6 17  1  0  0  0  0
  7 22  1  0  0  0  0
  7 25  1  0  0  0  0
  7 26  1  0  0  0  0
  8  9  1  0  0  0  0
  8 10  1  0  0  0  0
  8 12  2  0  0  0  0
  9 11  1  0  0  0  0
  9 15  2  0  0  0  0
 10 14  1  0  0  0  0
 14 16  2  0  0  0  0
 15 18  1  0  0  0  0
 17 20  1  0  0  0  0
 17 21  1  0  0  0  0
 18 19  2  0  0  0  0
 20 23  1  0  0  0  0
 21 24  1  0  0  0  0
 22 23  1  0  0  0  0
 22 24  1  0  0  0  0
M  END
> <Value>
7.199970640755866

> <Relation>
=

> <SourceURI>
mol:CHEMBL1969151

$$$$

Generated by Molecular Materials Informatics

 30 34  0  0  0  0  0  0  0  0999 V2000
    5.7413    3.9893    0.0000 F   0  0  0  0  0  0  0  0  0  0  0  0
    0.6587    5.0697    0.0000 F   0  0  0  0  0  0  0  0  0  0  0  0
   -2.7571    2.4417    0.0000 O   0  0  0  0  0  0  0  0  0  0  0  0
    6.3311   -1.0471    0.0000 N   0  0  0  0  0  0  0  0  0  0  0  0
    1.0636   -1.1869    0.0000 N   0  0  0  0  0  0  0  0  0  0  0  0
    6.5849    1.3668    0.0000 N   0  0  0  0  0  0  0  0  0  0  0  0
    2.3627   -0.4369    0.0000 N   0  0  0  0  0  0  0  0  0  0  0  0
   -1.2445   -1.9369    0.0000 N   0  0  0  0  0  0  0  0  0  0  0  0
   -0.3629   -3.1505    0.0000 N   0  0  0  0  0  0  0  0  0  0  0  0
    4.9609   -0.4369    0.0000 C   0  0  0  0  0  0  0  0  0  0  0  0
    5.1176    1.0548    0.0000 C   0  0  0  0  0  0  0  0  0  0  0  0
    3.6618   -1.1869    0.0000 C   0  0  0  0  0  0  0  0  0  0  0  0
    7.3349    0.0677    0.0000 C   0  0  0  0  0  0  0  0  0  0  0  0
   -0.3629   -0.7234    0.0000 C   0  0  0  0  0  0  0  0  0  0  0  0
    1.0636   -2.6869    0.0000 C   0  0  0  0  0  0  0  0  0  0  0  0
    4.0029    2.0586    0.0000 C   0  0  0  0  0  0  0  0  0  0  0  0
   -0.8264    0.7031    0.0000 C   0  0  0  0  0  0  0  0  0  0  0  0
    3.6618   -2.6869    0.0000 C   0  0  0  0  0  0  0  0  0  0  0  0
    7.0811   -2.3461    0.0000 C   0  0  0  0  0  0  0  0  0  0  0  0
    2.3627   -3.4369    0.0000 C   0  0  0  0  0  0  0  0  0  0  0  0
    8.7051   -0.5425    0.0000 C   0  0  0  0  0  0  0  0  0  0  0  0
    4.3147    3.5257    0.0000 C   0  0  0  0  0  0  0  0  0  0  0  0
    8.5484   -2.0341    0.0000 C   0  0  0  0  0  0  0  0  0  0  0  0
    2.5764    1.5949    0.0000 C   0  0  0  0  0  0  0  0  0  0  0  0
   -1.2900    2.1297    0.0000 C   0  0  0  0  0  0  0  0  0  0  0  0
    3.2000    4.5295    0.0000 C   0  0  0  0  0  0  0  0  0  0  0  0
    1.4616    2.5988    0.0000 C   0  0  0  0  0  0  0  0  0  0  0  0
    0.6002    1.1668    0.0000 C   0  0  0  0  0  0  0  0  0  0  0  0
   -2.2529    0.2397    0.0000 C   0  0  0  0  0  0  0  0  0  0  0  0
    1.7735    4.0659    0.0000 C   0  0  0  0  0  0  0  0  0  0  0  0
  1 22  1  0  0  0  0
  2 30  1  0  0  0  0
  3 25  1  0  0  0  0
  4 10  1  0  0  0  0
  4 13  1  0  0  0  0
  4 19  1  0  0  0  0
  5  7  1  0  0  0  0
  5 14  1  0  0  0  0
  5 15  1  0  0  0  0
  6 11  1  0  0  0  0
  6 13  2  0  0  0  0
  7 12  2  0  0  0  0
  8  9  1  0  0  0  0
  8 14  2  0  0  0  0
  9 15  2  0  0  0  0
 10 11  2  0  0  0  0
 10 12  1  0  0  0  0
 11 16  1  0  0  0  0
 12 18  1  0  0  0  0
 13 21  1  0  0  0  0
 14 17  1  0  0  0  0
 15 20  1  0  0  0  0
 16 22  1  0  0  0  0
 16 24  2  0  0  0  0
 17 25  1  0  0  0  0
 17 28  1  0  0  0  0
 17 29  1  0  0  0  0
 18 20  2  0  0  0  0
 19 23  1  0  0  0  0
 21 23  1  0  0  0  0
 22 26  2  0  0  0  0
 24 27  1  0  0  0  0
 26 30  1  0  0  0  0
 27 30  2  0  0  0  0
M  END
> <Value>
5.899998417198648

> <Relation>
<

> <SourceURI>
mol:CHEMBL1996587

$$$$

Generated by Molecular Materials Informatics

 14 15  0  0  0  0  0  0  0  0999 V2000
   -2.4411   -3.0022    0.0000 O   0  0  0  0  0  0  0  0  0  0  0  0
    0.0298   -3.8051    0.0000 O   0  0  0  0  0  0  0  0  0  0  0  0
    0.9162   -0.8002    0.0000 N   0  0  0  0  0  0  0  0  0  0  0  0
   -0.5103    1.1633    0.0000 N   0  0  0  0  0  0  0  0  0  0  0  0
   -2.8920   -0.0502    0.0000 N   0  0  0  0  0  0  0  0  0  0  0  0
   -0.5103   -1.2638    0.0000 C   0  0  0  0  0  0  0  0  0  0  0  0
    0.9162    0.6998    0.0000 C   0  0  0  0  0  0  0  0  0  0  0  0
   -1.3920   -0.0502    0.0000 C   0  0  0  0  0  0  0  0  0  0  0  0
   -0.9738   -2.6904    0.0000 C   0  0  0  0  0  0  0  0  0  0  0  0
    2.2153   -1.5502    0.0000 C   0  0  0  0  0  0  0  0  0  0  0  0
    2.2153    1.4498    0.0000 C   0  0  0  0  0  0  0  0  0  0  0  0
    3.5144   -0.8002    0.0000 C   0  0  0  0  0  0  0  0  0  0  0  0
    3.5144    0.6998    0.0000 C   0  0  0  0  0  0  0  0  0  0  0  0
   -2.9047   -4.4289    0.0000 C   0  0  0  0  0  0  0  0  0  0  0  0
  1  9  1  0  0  0  0
  1 14  1  0  0  0  0
  2  9  2  0  0  0  0
  3  6  1  0  0  0  0
  3  7  1  0  0  0  0
  3 10  1  0  0  0  0
  4  7  2  0  0  0  0
  4  8  1  0  0  0  0
  5  8  1  0  0  0  0
  6  8  2  0  0  0  0
  6  9  1  0  0  0  0
  7 11  1  0  0  0  0
 10 12  2  0  0  0  0
 11 13  2  0  0  0  0
 12 13  1  0  0  0  0
M  END
> <Value>
4.300000029139088

> <Relation>
=

> <SourceURI>
mol:CHEMBL1981492

$$$$

Generated by Molecular Materials Informatics

 21 24  0  0  0  0  0  0  0  0999 V2000
    4.6695   -1.8795    0.0000 Br  0  0  0  0  0  0  0  0  0  0  0  0
   -4.4085    4.7721    0.0000 F   0  0  0  0  0  0  0  0  0  0  0  0
   -5.3441   -1.1295    0.0000 N   0  0  0  0  0  0  0  0  0  0  0  0
   -0.6541    0.8340    0.0000 N   0  0  0  0  0  0  0  0  0  0  0  0
    2.0715   -1.8795    0.0000 N   0  0  0  0  0  0  0  0  0  0  0  0
    2.0715    1.1205    0.0000 N   0  0  0  0  0  0  0  0  0  0  0  0
   -3.0358   -0.3795    0.0000 C   0  0  0  0  0  0  0  0  0  0  0  0
   -1.5358   -0.3795    0.0000 C   0  0  0  0  0  0  0  0  0  0  0  0
   -3.9176    0.8340    0.0000 C   0  0  0  0  0  0  0  0  0  0  0  0
   -5.3441    0.3705    0.0000 C   0  0  0  0  0  0  0  0  0  0  0  0
    0.7724   -1.1295    0.0000 C   0  0  0  0  0  0  0  0  0  0  0  0
    0.7724    0.3705    0.0000 C   0  0  0  0  0  0  0  0  0  0  0  0
   -0.6541   -1.5930    0.0000 C   0  0  0  0  0  0  0  0  0  0  0  0
   -3.9176   -1.5930    0.0000 C   0  0  0  0  0  0  0  0  0  0  0  0
   -3.6056    2.3012    0.0000 C   0  0  0  0  0  0  0  0  0  0  0  0
   -6.4589    1.3741    0.0000 C   0  0  0  0  0  0  0  0  0  0  0  0
   -4.7203    3.3049    0.0000 C   0  0  0  0  0  0  0  0  0  0  0  0
    3.3704   -1.1295    0.0000 C   0  0  0  0  0  0  0  0  0  0  0  0
   -6.1470    2.8414    0.0000 C   0  0  0  0  0  0  0  0  0  0  0  0
    3.3704    0.3705    0.0000 C   0  0  0  0  0  0  0  0  0  0  0  0
   -6.5576   -2.0111    0.0000 C   0  0  0  0  0  0  0  0  0  0  0  0
  1 18  1  0  0  0  0
  2 17  1  0  0  0  0
  3 10  1  0  0  0  0
  3 14  1  0  0  0  0
  3 21  1  0  0  0  0
  4  8  1  0  0  0  0
  4 12  1  0  0  0  0
  5 11  2  0  0  0  0
  5 18  1  0  0  0  0
  6 12  2  0  0  0  0
  6 20  1  0  0  0  0
  7  8  1  0  0  0  0
  7  9  1  0  0  0  0
  7 14  2  0  0  0  0
  8 13  2  0  0  0  0
  9 10  1  0  0  0  0
  9 15  2  0  0  0  0
 10 16  2  0  0  0  0
 11 12  1  0  0  0  0
 11 13  1  0  0  0  0
 15 17  1  0  0  0  0
 16 19  1  0  0  0  0
 17 19  2  0  0  0  0
 18 20  2  0  0  0  0
M  END
> <Value>
5.300000202445418

> <Relation>
<

> <SourceURI>
mol:CHEMBL1993335

$$$$

Generated by Molecular Materials Informatics

 32 35  0  0  0  0  0  0  0  0999 V2000
   -6.1930   -0.0415    0.0000 F   0  0  0  0  0  0  0  0  0  0  0  0
   -7.0345   -8.2089    0.0000 O   0  0  0  0  0  0  0  0  0  0  0  0
    2.1152   -0.7915    0.0000 N   0  0  0  0  0  0  0  0  0  0  0  0
    0.6886    1.1720    0.0000 N   0  0  0  0  0  0  0  0  0  0  0  0
   -1.2421   -2.9935    0.0000 N   0  0  0  0  0  0  0  0  0  0  0  0
    4.7134    0.7085    0.0000 N   0  0  0  0  0  0  0  0  0  0  0  0
   -0.7019   -5.5347    0.0000 N   0  0  0  0  0  0  0  0  0  0  0  0
   -3.1728   -4.7320    0.0000 N   0  0  0  0  0  0  0  0  0  0  0  0
    2.1152    5.2085    0.0000 N   0  0  0  0  0  0  0  0  0  0  0  0
    0.6886   -1.2551    0.0000 C   0  0  0  0  0  0  0  0  0  0  0  0
   -0.1930   -0.0415    0.0000 C   0  0  0  0  0  0  0  0  0  0  0  0
    2.1152    0.7085    0.0000 C   0  0  0  0  0  0  0  0  0  0  0  0
    0.2252   -2.6817    0.0000 C   0  0  0  0  0  0  0  0  0  0  0  0
    3.4143    1.4585    0.0000 C   0  0  0  0  0  0  0  0  0  0  0  0
   -1.6930   -0.0415    0.0000 C   0  0  0  0  0  0  0  0  0  0  0  0
    3.4143   -1.5415    0.0000 C   0  0  0  0  0  0  0  0  0  0  0  0
    1.2288   -3.7964    0.0000 C   0  0  0  0  0  0  0  0  0  0  0  0
    4.7134   -0.7915    0.0000 C   0  0  0  0  0  0  0  0  0  0  0  0
   -2.4430   -1.3406    0.0000 C   0  0  0  0  0  0  0  0  0  0  0  0
   -2.4430    1.2574    0.0000 C   0  0  0  0  0  0  0  0  0  0  0  0
   -1.7057   -4.4202    0.0000 C   0  0  0  0  0  0  0  0  0  0  0  0
    3.4143    2.9585    0.0000 C   0  0  0  0  0  0  0  0  0  0  0  0
    0.7652   -5.2229    0.0000 C   0  0  0  0  0  0  0  0  0  0  0  0
   -3.9430   -1.3406    0.0000 C   0  0  0  0  0  0  0  0  0  0  0  0
   -3.9430    1.2574    0.0000 C   0  0  0  0  0  0  0  0  0  0  0  0
   -4.6930   -0.0415    0.0000 C   0  0  0  0  0  0  0  0  0  0  0  0
    2.1152    3.7085    0.0000 C   0  0  0  0  0  0  0  0  0  0  0  0
   -3.6365   -6.1586    0.0000 C   0  0  0  0  0  0  0  0  0  0  0  0
   -5.1036   -6.4704    0.0000 C   0  0  0  0  0  0  0  0  0  0  0  0
   -6.5708   -6.7824    0.0000 C   0  0  0  0  0  0  0  0  0  0  0  0
   -5.4156   -5.0033    0.0000 C   0  0  0  0  0  0  0  0  0  0  0  0
   -4.7917   -7.9377    0.0000 C   0  0  0  0  0  0  0  0  0  0  0  0
  1 26  1  0  0  0  0
  2 30  1  0  0  0  0
  3 10  1  0  0  0  0
  3 12  1  0  0  0  0
  3 16  1  0  0  0  0
  4 11  1  0  0  0  0
  4 12  2  0  0  0  0
  5 13  2  0  0  0  0
  5 21  1  0  0  0  0
  6 14  2  0  0  0  0
  6 18  1  0  0  0  0
  7 21  2  0  0  0  0
  7 23  1  0  0  0  0
  8 21  1  0  0  0  0
  8 28  1  0  0  0  0
  9 27  1  0  0  0  0
 10 11  2  0  0  0  0
 10 13  1  0  0  0  0
 11 15  1  0  0  0  0
 12 14  1  0  0  0  0
 13 17  1  0  0  0  0
 14 22  1  0  0  0  0
 15 19  2  0  0  0  0
 15 20  1  0  0  0  0
 16 18  2  0  0  0  0
 17 23  2  0  0  0  0
 19 24  1  0  0  0  0
 20 25  2  0  0  0  0
 22 27  1  0  0  0  0
 24 26  2  0  0  0  0
 25 26  1  0  0  0  0
 28 29  1  0  0  0  0
 29 30  1  0  0  0  0
 29 31  1  0  0  0  0
 29 32  1  0  0  0  0
M  END
> <Value>
5.899998417198648

> <Relation>
<

> <SourceURI>
mol:CHEMBL1982383

$$$$

Generated by Molecular Materials Informatics

 26 29  0  0  0  0  0  0  0  0999 V2000
    4.2508   -1.0650    0.0000 N   0  0  0  0  0  0  0  0  0  0  0  0
    2.8190   -0.6028    0.0000 C   0  0  0  0  0  0  0  0  0  0  0  0
    2.8341    0.8972    0.0000 C   0  0  0  0  0  0  0  0  0  0  0  0
    4.2659    1.3668    0.0000 N   0  0  0  0  0  0  0  0  0  0  0  0
    5.1372    0.1395    0.0000 C   0  0  0  0  0  0  0  0  0  0  0  0
    1.5386    1.6623    0.0000 C   0  0  0  0  0  0  0  0  0  0  0  0
    6.6372    0.1395    0.0000 C   0  0  0  0  0  0  0  0  0  0  0  0
    1.6068   -1.4741    0.0000 C   0  0  0  0  0  0  0  0  0  0  0  0
   -0.9841   -2.9741    0.0000 N   0  0  0  0  0  0  0  0  0  0  0  0
    1.5386    3.1623    0.0000 C   0  0  0  0  0  0  0  0  0  0  0  0
    0.2281    0.9123    0.0000 C   0  0  0  0  0  0  0  0  0  0  0  0
    7.3795   -1.1710    0.0000 C   0  0  0  0  0  0  0  0  0  0  0  0
    7.3872    1.4350    0.0000 C   0  0  0  0  0  0  0  0  0  0  0  0
    9.6372    0.1168    0.0000 C   0  0  0  0  0  0  0  0  0  0  0  0
   -1.0674    3.1623    0.0000 C   0  0  0  0  0  0  0  0  0  0  0  0
   11.1372    0.1168    0.0000 S   0  0  0  0  0  0  0  0  0  0  0  0
    8.8795   -1.1786    0.0000 C   0  0  0  0  0  0  0  0  0  0  0  0
    8.8872    1.4199    0.0000 C   0  0  0  0  0  0  0  0  0  0  0  0
    0.2281    3.9123    0.0000 C   0  0  0  0  0  0  0  0  0  0  0  0
   -1.0674    1.6623    0.0000 C   0  0  0  0  0  0  0  0  0  0  0  0
   -2.3628    3.9123    0.0000 F   0  0  0  0  0  0  0  0  0  0  0  0
    0.3190   -3.7165    0.0000 C   0  0  0  0  0  0  0  0  0  0  0  0
   -0.9841   -1.4741    0.0000 C   0  0  0  0  0  0  0  0  0  0  0  0
    1.6144   -2.9665    0.0000 C   0  0  0  0  0  0  0  0  0  0  0  0
    0.3114   -0.7241    0.0000 C   0  0  0  0  0  0  0  0  0  0  0  0
   11.8795   -1.1937    0.0000 C   0  0  0  0  0  0  0  0  0  0  0  0
  2  1  1  0  0  0  0
  3  2  2  0  0  0  0
  4  5  2  0  0  0  0
  5  1  1  0  0  0  0
  6  3  1  0  0  0  0
  7  5  1  0  0  0  0
  8  2  1  0  0  0  0
  9 23  2  0  0  0  0
 10  6  2  0  0  0  0
 11  6  1  0  0  0  0
 12  7  2  0  0  0  0
 13  7  1  0  0  0  0
 14 18  1  0  0  0  0
 15 20  1  0  0  0  0
 16 14  1  0  0  0  0
 17 12  1  0  0  0  0
 18 13  2  0  0  0  0
 19 10  1  0  0  0  0
 20 11  2  0  0  0  0
 21 15  1  0  0  0  0
 22 24  2  0  0  0  0
 23 25  1  0  0  0  0
 24  8  1  0  0  0  0
 25  8  2  0  0  0  0
 26 16  1  0  0  0  0
  3  4  1  0  0  0  0
 14 17  2  0  0  0  0
  9 22  1  0  0  0  0
 15 19  2  0  0  0  0
M  END
> <Value>
5.899998417198648

> <Relation>
<

> <SourceURI>
mol:CHEMBL17370

$$$$

Generated by Molecular Materials Informatics

 22 24  0  0  0  0  0  0  0  0999 V2000
   -4.1892    3.4311    0.0000 O   0  0  0  0  0  0  0  0  0  0  0  0
    2.3056   -1.8187    0.0000 N   0  0  0  0  0  0  0  0  0  0  0  0
    1.0068    0.4312    0.0000 N   0  0  0  0  0  0  0  0  0  0  0  0
   -0.2923   -1.8187    0.0000 N   0  0  0  0  0  0  0  0  0  0  0  0
    1.0068   -4.0687    0.0000 N   0  0  0  0  0  0  0  0  0  0  0  0
   -5.4883    1.1812    0.0000 N   0  0  0  0  0  0  0  0  0  0  0  0
    2.3056   -3.3187    0.0000 C   0  0  0  0  0  0  0  0  0  0  0  0
    1.0068   -1.0688    0.0000 C   0  0  0  0  0  0  0  0  0  0  0  0
   -0.2923    1.1812    0.0000 C   0  0  0  0  0  0  0  0  0  0  0  0
    3.6047   -4.0687    0.0000 C   0  0  0  0  0  0  0  0  0  0  0  0
   -2.8902    1.1812    0.0000 C   0  0  0  0  0  0  0  0  0  0  0  0
   -1.5913    0.4312    0.0000 C   0  0  0  0  0  0  0  0  0  0  0  0
   -2.8902    2.6811    0.0000 C   0  0  0  0  0  0  0  0  0  0  0  0
   -0.2923    2.6811    0.0000 C   0  0  0  0  0  0  0  0  0  0  0  0
   -1.5913    3.4311    0.0000 C   0  0  0  0  0  0  0  0  0  0  0  0
   -0.2923   -3.3187    0.0000 C   0  0  0  0  0  0  0  0  0  0  0  0
    4.9037   -3.3187    0.0000 C   0  0  0  0  0  0  0  0  0  0  0  0
    3.6047   -5.5686    0.0000 C   0  0  0  0  0  0  0  0  0  0  0  0
   -4.1892    0.4312    0.0000 C   0  0  0  0  0  0  0  0  0  0  0  0
    6.2028   -4.0687    0.0000 C   0  0  0  0  0  0  0  0  0  0  0  0
    4.9037   -6.3186    0.0000 C   0  0  0  0  0  0  0  0  0  0  0  0
    6.2028   -5.5686    0.0000 C   0  0  0  0  0  0  0  0  0  0  0  0
  1 13  1  0  0  0  0
  2  7  2  0  0  0  0
  2  8  1  0  0  0  0
  3  8  1  0  0  0  0
  3  9  1  0  0  0  0
  4  8  2  0  0  0  0
  4 16  1  0  0  0  0
  5  7  1  0  0  0  0
  5 16  2  0  0  0  0
  6 19  1  0  0  0  0
  7 10  1  0  0  0  0
  9 12  1  0  0  0  0
  9 14  2  0  0  0  0
 10 17  2  0  0  0  0
 10 18  1  0  0  0  0
 11 12  2  0  0  0  0
 11 13  1  0  0  0  0
 11 19  1  0  0  0  0
 13 15  2  0  0  0  0
 14 15  1  0  0  0  0
 17 20  1  0  0  0  0
 18 21  2  0  0  0  0
 20 22  2  0  0  0  0
 21 22  1  0  0  0  0
M  END
> <Value>
5.300000202445418

> <Relation>
<

> <SourceURI>
mol:CHEMBL1980246

$$$$

Generated by Molecular Materials Informatics

 30 33  0  0  0  0  0  0  0  0999 V2000
    0.7929    5.2399    0.0000 S   0  0  0  0  0  0  0  0  0  0  0  0
   -2.9153   -8.5999    0.0000 F   0  0  0  0  0  0  0  0  0  0  0  0
   -5.0336   -8.4888    0.0000 F   0  0  0  0  0  0  0  0  0  0  0  0
   -2.8044   -6.4813    0.0000 F   0  0  0  0  0  0  0  0  0  0  0  0
   -3.5322   -2.0906    0.0000 O   0  0  0  0  0  0  0  0  0  0  0  0
    4.8176    3.2763    0.0000 N   0  0  0  0  0  0  0  0  0  0  0  0
   -2.9920   -4.6319    0.0000 N   0  0  0  0  0  0  0  0  0  0  0  0
   -1.0613   -2.8935    0.0000 N   0  0  0  0  0  0  0  0  0  0  0  0
    3.5185    1.0263    0.0000 N   0  0  0  0  0  0  0  0  0  0  0  0
    2.2195    3.2763    0.0000 C   0  0  0  0  0  0  0  0  0  0  0  0
    0.7929    2.8128    0.0000 C   0  0  0  0  0  0  0  0  0  0  0  0
    2.2195    4.7763    0.0000 C   0  0  0  0  0  0  0  0  0  0  0  0
    0.3295    1.3863    0.0000 C   0  0  0  0  0  0  0  0  0  0  0  0
    3.5185    2.5263    0.0000 C   0  0  0  0  0  0  0  0  0  0  0  0
   -0.0887    4.0263    0.0000 C   0  0  0  0  0  0  0  0  0  0  0  0
   -4.9227   -6.3704    0.0000 C   0  0  0  0  0  0  0  0  0  0  0  0
    3.5185    5.5263    0.0000 C   0  0  0  0  0  0  0  0  0  0  0  0
   -4.4591   -4.9439    0.0000 C   0  0  0  0  0  0  0  0  0  0  0  0
   -3.9191   -7.4852    0.0000 C   0  0  0  0  0  0  0  0  0  0  0  0
    1.3331    0.2716    0.0000 C   0  0  0  0  0  0  0  0  0  0  0  0
   -1.1378    1.0745    0.0000 C   0  0  0  0  0  0  0  0  0  0  0  0
   -0.5976   -1.4670    0.0000 C   0  0  0  0  0  0  0  0  0  0  0  0
    4.8176    4.7763    0.0000 C   0  0  0  0  0  0  0  0  0  0  0  0
    0.8695   -1.1550    0.0000 C   0  0  0  0  0  0  0  0  0  0  0  0
   -1.6015   -0.3523    0.0000 C   0  0  0  0  0  0  0  0  0  0  0  0
   -6.3900   -6.6823    0.0000 C   0  0  0  0  0  0  0  0  0  0  0  0
   -2.5284   -3.2053    0.0000 C   0  0  0  0  0  0  0  0  0  0  0  0
   -5.4629   -3.8292    0.0000 C   0  0  0  0  0  0  0  0  0  0  0  0
   -7.3936   -5.5675    0.0000 C   0  0  0  0  0  0  0  0  0  0  0  0
   -6.9302   -4.1410    0.0000 C   0  0  0  0  0  0  0  0  0  0  0  0
  1 12  1  0  0  0  0
  1 15  1  0  0  0  0
  2 19  1  0  0  0  0
  3 19  1  0  0  0  0
  4 19  1  0  0  0  0
  5 27  2  0  0  0  0
  6 14  2  0  0  0  0
  6 23  1  0  0  0  0
  7 18  1  0  0  0  0
  7 27  1  0  0  0  0
  8 22  1  0  0  0  0
  8 27  1  0  0  0  0
  9 14  1  0  0  0  0
 10 11  1  0  0  0  0
 10 12  2  0  0  0  0
 10 14  1  0  0  0  0
 11 13  1  0  0  0  0
 11 15  2  0  0  0  0
 12 17  1  0  0  0  0
 13 20  2  0  0  0  0
 13 21  1  0  0  0  0
 16 18  1  0  0  0  0
 16 19  1  0  0  0  0
 16 26  2  0  0  0  0
 17 23  2  0  0  0  0
 18 28  2  0  0  0  0
 20 24  1  0  0  0  0
 21 25  2  0  0  0  0
 22 24  2  0  0  0  0
 22 25  1  0  0  0  0
 26 29  1  0  0  0  0
 28 30  1  0  0  0  0
 29 30  2  0  0  0  0
M  END
> <Value>
5.899998417198648

> <Relation>
<

> <SourceURI>
mol:CHEMBL1987910

$$$$

Generated by Molecular Materials Informatics

 23 25  0  0  0  0  0  0  0  0999 V2000
   -6.2028   -4.8937    0.0000 Br  0  0  0  0  0  0  0  0  0  0  0  0
    5.4883    1.8561    0.0000 O   0  0  0  0  0  0  0  0  0  0  0  0
   -2.3056   -2.6437    0.0000 O   0  0  0  0  0  0  0  0  0  0  0  0
    0.2923   -2.6437    0.0000 N   0  0  0  0  0  0  0  0  0  0  0  0
    0.2923    1.8561    0.0000 N   0  0  0  0  0  0  0  0  0  0  0  0
   -1.0068   -4.8937    0.0000 N   0  0  0  0  0  0  0  0  0  0  0  0
   -3.6047   -4.8937    0.0000 N   0  0  0  0  0  0  0  0  0  0  0  0
    1.5913   -0.3938    0.0000 C   0  0  0  0  0  0  0  0  0  0  0  0
    1.5913    1.1061    0.0000 C   0  0  0  0  0  0  0  0  0  0  0  0
    0.2923   -1.1438    0.0000 C   0  0  0  0  0  0  0  0  0  0  0  0
    2.8902   -1.1438    0.0000 C   0  0  0  0  0  0  0  0  0  0  0  0
    2.8902    1.8561    0.0000 C   0  0  0  0  0  0  0  0  0  0  0  0
    4.1892    1.1061    0.0000 C   0  0  0  0  0  0  0  0  0  0  0  0
   -1.0068   -0.3938    0.0000 C   0  0  0  0  0  0  0  0  0  0  0  0
   -1.0068   -3.3937    0.0000 C   0  0  0  0  0  0  0  0  0  0  0  0
    4.1892   -0.3938    0.0000 C   0  0  0  0  0  0  0  0  0  0  0  0
   -1.0068    1.1061    0.0000 C   0  0  0  0  0  0  0  0  0  0  0  0
   -2.3056   -5.6436    0.0000 C   0  0  0  0  0  0  0  0  0  0  0  0
   -4.9037   -5.6436    0.0000 C   0  0  0  0  0  0  0  0  0  0  0  0
   -2.3056   -7.1436    0.0000 C   0  0  0  0  0  0  0  0  0  0  0  0
   -4.9037   -7.1436    0.0000 C   0  0  0  0  0  0  0  0  0  0  0  0
   -3.6047   -7.8936    0.0000 C   0  0  0  0  0  0  0  0  0  0  0  0
    5.4883    3.3561    0.0000 C   0  0  0  0  0  0  0  0  0  0  0  0
  1 19  1  0  0  0  0
  2 13  1  0  0  0  0
  2 23  1  0  0  0  0
  3 15  2  0  0  0  0
  4 10  1  0  0  0  0
  4 15  1  0  0  0  0
  5  9  1  0  0  0  0
  5 17  2  0  0  0  0
  6 15  1  0  0  0  0
  6 18  1  0  0  0  0
  7 18  1  0  0  0  0
  7 19  2  0  0  0  0
  8  9  1  0  0  0  0
  8 10  1  0  0  0  0
  8 11  2  0  0  0  0
  9 12  2  0  0  0  0
 10 14  2  0  0  0  0
 11 16  1  0  0  0  0
 12 13  1  0  0  0  0
 13 16  2  0  0  0  0
 14 17  1  0  0  0  0
 18 20  2  0  0  0  0
 19 21  1  0  0  0  0
 20 22  1  0  0  0  0
 21 22  2  0  0  0  0
M  END
> <Value>
5.899998417198648

> <Relation>
<

> <SourceURI>
mol:CHEMBL1983932

$$$$

Generated by Molecular Materials Informatics

 38 43  0  0  0  0  0  0  0  0999 V2000
   -5.2964    3.6965    0.0000 S   0  0  0  0  0  0  0  0  0  0  0  0
   -2.1564   -4.1690    0.0000 S   0  0  0  0  0  0  0  0  0  0  0  0
   -4.5382   -0.3575    0.0000 O   0  0  0  0  0  0  0  0  0  0  0  0
   -5.2267    8.2872    0.0000 O   0  0  0  0  0  0  0  0  0  0  0  0
   -7.8105    8.0156    0.0000 O   0  0  0  0  0  0  0  0  0  0  0  0
    1.7104    6.7225    0.0000 O   0  0  0  0  0  0  0  0  0  0  0  0
   -7.5382    2.2407    0.0000 N   0  0  0  0  0  0  0  0  0  0  0  0
   -7.3982    4.9099    0.0000 N   0  0  0  0  0  0  0  0  0  0  0  0
   -4.5382   -2.9555    0.0000 N   0  0  0  0  0  0  0  0  0  0  0  0
   -2.1564   -1.7421    0.0000 N   0  0  0  0  0  0  0  0  0  0  0  0
   -6.7882    3.5398    0.0000 C   0  0  0  0  0  0  0  0  0  0  0  0
   -4.9845    5.1638    0.0000 C   0  0  0  0  0  0  0  0  0  0  0  0
   -7.5382   -0.3575    0.0000 C   0  0  0  0  0  0  0  0  0  0  0  0
   -6.2835    5.9138    0.0000 C   0  0  0  0  0  0  0  0  0  0  0  0
   -6.7882   -1.6564    0.0000 C   0  0  0  0  0  0  0  0  0  0  0  0
   -9.0382   -0.3575    0.0000 C   0  0  0  0  0  0  0  0  0  0  0  0
   -6.7882    0.9416    0.0000 C   0  0  0  0  0  0  0  0  0  0  0  0
   -3.6142    5.7738    0.0000 C   0  0  0  0  0  0  0  0  0  0  0  0
   -9.0382    2.2407    0.0000 C   0  0  0  0  0  0  0  0  0  0  0  0
   -5.2882   -1.6564    0.0000 C   0  0  0  0  0  0  0  0  0  0  0  0
   -9.7882    0.9416    0.0000 C   0  0  0  0  0  0  0  0  0  0  0  0
   -6.4404    7.4054    0.0000 C   0  0  0  0  0  0  0  0  0  0  0  0
   -3.0382   -2.9555    0.0000 C   0  0  0  0  0  0  0  0  0  0  0  0
   -7.5382   -2.9555    0.0000 C   0  0  0  0  0  0  0  0  0  0  0  0
   -9.7882   -1.6564    0.0000 C   0  0  0  0  0  0  0  0  0  0  0  0
   -0.7298   -3.7055    0.0000 C   0  0  0  0  0  0  0  0  0  0  0  0
   -0.7298   -2.2055    0.0000 C   0  0  0  0  0  0  0  0  0  0  0  0
   -3.4573    7.2656    0.0000 C   0  0  0  0  0  0  0  0  0  0  0  0
   -2.4005    4.8921    0.0000 C   0  0  0  0  0  0  0  0  0  0  0  0
   -9.0382   -2.9555    0.0000 C   0  0  0  0  0  0  0  0  0  0  0  0
   -2.0871    7.8758    0.0000 C   0  0  0  0  0  0  0  0  0  0  0  0
   -1.0304    5.5023    0.0000 C   0  0  0  0  0  0  0  0  0  0  0  0
   -0.8735    6.9939    0.0000 C   0  0  0  0  0  0  0  0  0  0  0  0
    0.5693   -4.4555    0.0000 C   0  0  0  0  0  0  0  0  0  0  0  0
    0.5693   -1.4555    0.0000 C   0  0  0  0  0  0  0  0  0  0  0  0
    1.8682   -3.7055    0.0000 C   0  0  0  0  0  0  0  0  0  0  0  0
    1.8682   -2.2055    0.0000 C   0  0  0  0  0  0  0  0  0  0  0  0
    0.4967    7.6041    0.0000 C   0  0  0  0  0  0  0  0  0  0  0  0
  1 11  1  0  0  0  0
  1 12  1  0  0  0  0
  2 23  1  0  0  0  0
  2 26  1  0  0  0  0
  3 20  2  0  0  0  0
  4 22  2  0  0  0  0
  5 22  1  0  0  0  0
  6 38  1  0  0  0  0
  7 11  1  0  0  0  0
  7 17  1  0  0  0  0
  7 19  1  0  0  0  0
  8 11  2  0  0  0  0
  8 14  1  0  0  0  0
  9 20  1  0  0  0  0
  9 23  1  0  0  0  0
 10 23  2  0  0  0  0
 10 27  1  0  0  0  0
 12 14  2  0  0  0  0
 12 18  1  0  0  0  0
 13 15  2  0  0  0  0
 13 16  1  0  0  0  0
 13 17  1  0  0  0  0
 14 22  1  0  0  0  0
 15 20  1  0  0  0  0
 15 24  1  0  0  0  0
 16 21  1  0  0  0  0
 16 25  2  0  0  0  0
 18 28  2  0  0  0  0
 18 29  1  0  0  0  0
 19 21  1  0  0  0  0
 24 30  2  0  0  0  0
 25 30  1  0  0  0  0
 26 27  1  0  0  0  0
 26 34  2  0  0  0  0
 27 35  2  0  0  0  0
 28 31  1  0  0  0  0
 29 32  2  0  0  0  0
 31 33  2  0  0  0  0
 32 33  1  0  0  0  0
 33 38  1  0  0  0  0
 34 36  1  0  0  0  0
 35 37  1  0  0  0  0
 36 37  2  0  0  0  0
M  END
> <Value>
5.40000018605658

> <Relation>
=

> <SourceURI>
mol:CHEMBL1983980

$$$$

Generated by Molecular Materials Informatics

 27 30  0  0  0  0  0  0  0  0999 V2000
   -0.7522   -1.7449    0.0000 S   0  0  0  0  0  0  0  0  0  0  0  0
   -0.9442   -5.7553    0.0000 N   0  0  0  0  0  0  0  0  0  0  0  0
   -3.1793   -1.7449    0.0000 N   0  0  0  0  0  0  0  0  0  0  0  0
   -0.6726   -8.3391    0.0000 N   0  0  0  0  0  0  0  0  0  0  0  0
    1.4292   -6.8121    0.0000 N   0  0  0  0  0  0  0  0  0  0  0  0
    2.8541  -13.1930    0.0000 N   0  0  0  0  0  0  0  0  0  0  0  0
   -1.9659    0.6367    0.0000 N   0  0  0  0  0  0  0  0  0  0  0  0
    4.6173  -15.6201    0.0000 N   0  0  0  0  0  0  0  0  0  0  0  0
   -1.2159   -3.1714    0.0000 C   0  0  0  0  0  0  0  0  0  0  0  0
   -0.3341   -4.3850    0.0000 C   0  0  0  0  0  0  0  0  0  0  0  0
   -2.7158   -3.1714    0.0000 C   0  0  0  0  0  0  0  0  0  0  0  0
   -1.9659   -0.8632    0.0000 C   0  0  0  0  0  0  0  0  0  0  0  0
   -0.0626   -6.9688    0.0000 C   0  0  0  0  0  0  0  0  0  0  0  0
    1.1575   -4.2281    0.0000 C   0  0  0  0  0  0  0  0  0  0  0  0
    0.2090   -9.5526    0.0000 C   0  0  0  0  0  0  0  0  0  0  0  0
    1.9723  -11.9796    0.0000 C   0  0  0  0  0  0  0  0  0  0  0  0
    2.0393   -5.4417    0.0000 C   0  0  0  0  0  0  0  0  0  0  0  0
   -3.5975   -4.3850    0.0000 C   0  0  0  0  0  0  0  0  0  0  0  0
    1.7008   -9.3958    0.0000 C   0  0  0  0  0  0  0  0  0  0  0  0
   -0.4012  -10.9229    0.0000 C   0  0  0  0  0  0  0  0  0  0  0  0
    2.5824  -10.6093    0.0000 C   0  0  0  0  0  0  0  0  0  0  0  0
    0.4805  -12.1363    0.0000 C   0  0  0  0  0  0  0  0  0  0  0  0
    4.3457  -13.0363    0.0000 C   0  0  0  0  0  0  0  0  0  0  0  0
    2.2439  -14.5634    0.0000 C   0  0  0  0  0  0  0  0  0  0  0  0
    5.2275  -14.2497    0.0000 C   0  0  0  0  0  0  0  0  0  0  0  0
    3.1255  -15.7768    0.0000 C   0  0  0  0  0  0  0  0  0  0  0  0
   -3.2647    1.3867    0.0000 C   0  0  0  0  0  0  0  0  0  0  0  0
  1  9  1  0  0  0  0
  1 12  1  0  0  0  0
  2 10  1  0  0  0  0
  2 13  2  0  0  0  0
  3 11  1  0  0  0  0
  3 12  2  0  0  0  0
  4 13  1  0  0  0  0
  4 15  1  0  0  0  0
  5 13  1  0  0  0  0
  5 17  2  0  0  0  0
  6 16  1  0  0  0  0
  6 23  1  0  0  0  0
  6 24  1  0  0  0  0
  7 12  1  0  0  0  0
  7 27  1  0  0  0  0
  8 25  1  0  0  0  0
  8 26  1  0  0  0  0
  9 10  1  0  0  0  0
  9 11  2  0  0  0  0
 10 14  2  0  0  0  0
 11 18  1  0  0  0  0
 14 17  1  0  0  0  0
 15 19  2  0  0  0  0
 15 20  1  0  0  0  0
 16 21  2  0  0  0  0
 16 22  1  0  0  0  0
 19 21  1  0  0  0  0
 20 22  2  0  0  0  0
 23 25  1  0  0  0  0
 24 26  1  0  0  0  0
M  END
> <Value>
7.599980364934842

> <Relation>
=

> <SourceURI>
mol:CHEMBL1999484

$$$$

Generated by Molecular Materials Informatics

 35 39  0  0  0  0  0  0  0  0999 V2000
    0.7929    3.4182    0.0000 S   0  0  0  0  0  0  0  0  0  0  0  0
   -6.8535   -9.9306    0.0000 F   0  0  0  0  0  0  0  0  0  0  0  0
   -3.5322   -3.9124    0.0000 O   0  0  0  0  0  0  0  0  0  0  0  0
    1.6153   11.3102    0.0000 O   0  0  0  0  0  0  0  0  0  0  0  0
    4.8176    1.4545    0.0000 N   0  0  0  0  0  0  0  0  0  0  0  0
    2.7685    7.5129    0.0000 N   0  0  0  0  0  0  0  0  0  0  0  0
    3.5186   -0.7955    0.0000 N   0  0  0  0  0  0  0  0  0  0  0  0
    4.2686    7.5129    0.0000 N   0  0  0  0  0  0  0  0  0  0  0  0
   -1.0613   -4.7153    0.0000 N   0  0  0  0  0  0  0  0  0  0  0  0
   -2.9920   -6.4537    0.0000 N   0  0  0  0  0  0  0  0  0  0  0  0
    2.2195    1.4545    0.0000 C   0  0  0  0  0  0  0  0  0  0  0  0
    2.2195    2.9545    0.0000 C   0  0  0  0  0  0  0  0  0  0  0  0
    0.7929    0.9911    0.0000 C   0  0  0  0  0  0  0  0  0  0  0  0
    3.5186    3.7045    0.0000 C   0  0  0  0  0  0  0  0  0  0  0  0
    3.5186    0.7045    0.0000 C   0  0  0  0  0  0  0  0  0  0  0  0
    3.5186    5.2045    0.0000 C   0  0  0  0  0  0  0  0  0  0  0  0
    0.3295   -0.4355    0.0000 C   0  0  0  0  0  0  0  0  0  0  0  0
   -0.0887    2.2045    0.0000 C   0  0  0  0  0  0  0  0  0  0  0  0
    4.8176    2.9545    0.0000 C   0  0  0  0  0  0  0  0  0  0  0  0
    2.3049    6.0864    0.0000 C   0  0  0  0  0  0  0  0  0  0  0  0
    4.7320    6.0864    0.0000 C   0  0  0  0  0  0  0  0  0  0  0  0
    1.3331   -1.5502    0.0000 C   0  0  0  0  0  0  0  0  0  0  0  0
   -1.1378   -0.7473    0.0000 C   0  0  0  0  0  0  0  0  0  0  0  0
   -0.5976   -3.2887    0.0000 C   0  0  0  0  0  0  0  0  0  0  0  0
    0.8695   -2.9767    0.0000 C   0  0  0  0  0  0  0  0  0  0  0  0
   -1.6015   -2.1740    0.0000 C   0  0  0  0  0  0  0  0  0  0  0  0
    1.8869    8.7264    0.0000 C   0  0  0  0  0  0  0  0  0  0  0  0
   -2.5284   -5.0271    0.0000 C   0  0  0  0  0  0  0  0  0  0  0  0
    2.4969   10.0967    0.0000 C   0  0  0  0  0  0  0  0  0  0  0  0
   -4.4591   -6.7657    0.0000 C   0  0  0  0  0  0  0  0  0  0  0  0
   -4.9227   -8.1922    0.0000 C   0  0  0  0  0  0  0  0  0  0  0  0
   -5.4629   -5.6509    0.0000 C   0  0  0  0  0  0  0  0  0  0  0  0
   -6.3900   -8.5040    0.0000 C   0  0  0  0  0  0  0  0  0  0  0  0
   -6.9302   -5.9628    0.0000 C   0  0  0  0  0  0  0  0  0  0  0  0
   -7.3936   -7.3893    0.0000 C   0  0  0  0  0  0  0  0  0  0  0  0
  1 12  1  0  0  0  0
  1 18  1  0  0  0  0
  2 33  1  0  0  0  0
  3 28  2  0  0  0  0
  4 29  1  0  0  0  0
  5 15  2  0  0  0  0
  5 19  1  0  0  0  0
  6  8  1  0  0  0  0
  6 20  1  0  0  0  0
  6 27  1  0  0  0  0
  7 15  1  0  0  0  0
  8 21  2  0  0  0  0
  9 24  1  0  0  0  0
  9 28  1  0  0  0  0
 10 28  1  0  0  0  0
 10 30  1  0  0  0  0
 11 12  2  0  0  0  0
 11 13  1  0  0  0  0
 11 15  1  0  0  0  0
 12 14  1  0  0  0  0
 13 17  1  0  0  0  0
 13 18  2  0  0  0  0
 14 16  1  0  0  0  0
 14 19  2  0  0  0  0
 16 20  2  0  0  0  0
 16 21  1  0  0  0  0
 17 22  2  0  0  0  0
 17 23  1  0  0  0  0
 22 25  1  0  0  0  0
 23 26  2  0  0  0  0
 24 25  2  0  0  0  0
 24 26  1  0  0  0  0
 27 29  1  0  0  0  0
 30 31  1  0  0  0  0
 30 32  2  0  0  0  0
 31 33  2  0  0  0  0
 32 34  1  0  0  0  0
 33 35  1  0  0  0  0
 34 35  2  0  0  0  0
M  END
> <Value>
5.300000202445418

> <Relation>
<

> <SourceURI>
mol:CHEMBL1980297

$$$$

Generated by Molecular Materials Informatics

 24 28  0  0  0  0  0  0  0  0999 V2000
    6.3436   -1.6943    0.0000 N   0  0  0  0  0  0  0  0  0  0  0  0
    2.6176    1.6364    0.0000 N   0  0  0  0  0  0  0  0  0  0  0  0
    7.3473   -0.5796    0.0000 N   0  0  0  0  0  0  0  0  0  0  0  0
    3.9880    2.2466    0.0000 N   0  0  0  0  0  0  0  0  0  0  0  0
    8.7176   -1.1896    0.0000 N   0  0  0  0  0  0  0  0  0  0  0  0
    4.9916    1.1319    0.0000 N   0  0  0  0  0  0  0  0  0  0  0  0
   -2.7060    4.3500    0.0000 N   0  0  0  0  0  0  0  0  0  0  0  0
   -3.5876    3.1364    0.0000 N   0  0  0  0  0  0  0  0  0  0  0  0
    7.0936   -2.9932    0.0000 C   0  0  0  0  0  0  0  0  0  0  0  0
    1.3187    2.3864    0.0000 C   0  0  0  0  0  0  0  0  0  0  0  0
    4.2416   -0.1672    0.0000 C   0  0  0  0  0  0  0  0  0  0  0  0
    8.5607   -2.6814    0.0000 C   0  0  0  0  0  0  0  0  0  0  0  0
   -1.2795    2.3864    0.0000 C   0  0  0  0  0  0  0  0  0  0  0  0
    4.8518   -1.5374    0.0000 C   0  0  0  0  0  0  0  0  0  0  0  0
    2.7745    0.1448    0.0000 C   0  0  0  0  0  0  0  0  0  0  0  0
   -1.2795    3.8864    0.0000 C   0  0  0  0  0  0  0  0  0  0  0  0
    0.0196    1.6364    0.0000 C   0  0  0  0  0  0  0  0  0  0  0  0
    1.3187    3.8864    0.0000 C   0  0  0  0  0  0  0  0  0  0  0  0
    6.6300   -4.4200    0.0000 C   0  0  0  0  0  0  0  0  0  0  0  0
    0.0196    4.6364    0.0000 C   0  0  0  0  0  0  0  0  0  0  0  0
    9.5645   -3.7962    0.0000 C   0  0  0  0  0  0  0  0  0  0  0  0
   -2.7060    1.9229    0.0000 C   0  0  0  0  0  0  0  0  0  0  0  0
    7.6338   -5.5347    0.0000 C   0  0  0  0  0  0  0  0  0  0  0  0
    9.1009   -5.2227    0.0000 C   0  0  0  0  0  0  0  0  0  0  0  0
  1  3  1  0  0  0  0
  1  9  1  0  0  0  0
  1 14  1  0  0  0  0
  2  4  1  0  0  0  0
  2 10  1  0  0  0  0
  2 15  1  0  0  0  0
  3  5  2  0  0  0  0
  4  6  2  0  0  0  0
  5 12  1  0  0  0  0
  6 11  1  0  0  0  0
  7  8  1  0  0  0  0
  7 16  1  0  0  0  0
  8 22  2  0  0  0  0
  9 12  1  0  0  0  0
  9 19  2  0  0  0  0
 10 17  1  0  0  0  0
 10 18  2  0  0  0  0
 11 14  1  0  0  0  0
 11 15  2  0  0  0  0
 12 21  2  0  0  0  0
 13 16  1  0  0  0  0
 13 17  2  0  0  0  0
 13 22  1  0  0  0  0
 16 20  2  0  0  0  0
 18 20  1  0  0  0  0
 19 23  1  0  0  0  0
 21 24  1  0  0  0  0
 23 24  2  0  0  0  0
M  END
> <Value>
5.899998417198648

> <Relation>
<

> <SourceURI>
mol:CHEMBL1966069

$$$$

Generated by Molecular Materials Informatics

 40 44  0  0  0  0  0  0  0  0999 V2000
   -0.4326   -2.8223    0.0000 C   0  0  0  0  0  0  0  0  0  0  0  0
   -1.9312   -2.8223    0.0000 C   0  0  0  0  0  0  0  0  0  0  0  0
   -2.3924   -4.2436    0.0000 C   0  0  0  0  0  0  0  0  0  0  0  0
   -1.1775   -5.1356    0.0000 O   0  0  0  0  0  0  0  0  0  0  0  0
    0.0372   -4.2436    0.0000 C   0  0  0  0  0  0  0  0  0  0  0  0
    1.3358   -4.9973    0.0000 C   0  0  0  0  0  0  0  0  0  0  0  0
    1.3333   -6.5009    0.0000 C   0  0  0  0  0  0  0  0  0  0  0  0
    2.6354   -7.2464    0.0000 C   0  0  0  0  0  0  0  0  0  0  0  0
    2.6316   -4.2431    0.0000 C   0  0  0  0  0  0  0  0  0  0  0  0
    3.9170   -4.9895    0.0000 C   0  0  0  0  0  0  0  0  0  0  0  0
    3.9190   -6.4931    0.0000 C   0  0  0  0  0  0  0  0  0  0  0  0
    5.2215   -7.2353    0.0000 N   0  0  0  0  0  0  0  0  0  0  0  0
    6.5220   -6.4849    0.0000 C   0  0  0  0  0  0  0  0  0  0  0  0
    6.5126   -4.9757    0.0000 N   0  0  0  0  0  0  0  0  0  0  0  0
    5.2096   -4.2315    0.0000 C   0  0  0  0  0  0  0  0  0  0  0  0
    5.2008   -2.7331    0.0000 N   0  0  0  0  0  0  0  0  0  0  0  0
    6.4952   -1.9806    0.0000 C   0  0  0  0  0  0  0  0  0  0  0  0
    7.7913   -2.7231    0.0000 C   0  0  0  0  0  0  0  0  0  0  0  0
    9.0849   -1.9722    0.0000 C   0  0  0  0  0  0  0  0  0  0  0  0
    9.0769   -0.4720    0.0000 C   0  0  0  0  0  0  0  0  0  0  0  0
    7.7646    0.2734    0.0000 C   0  0  0  0  0  0  0  0  0  0  0  0
    6.4763   -0.4905    0.0000 C   0  0  0  0  0  0  0  0  0  0  0  0
   10.3703    0.2909    0.0000 O   0  0  0  0  0  0  0  0  0  0  0  0
   11.6748   -0.4535    0.0000 C   0  0  0  0  0  0  0  0  0  0  0  0
   12.9593    0.3094    0.0000 C   0  0  0  0  0  0  0  0  0  0  0  0
    7.7507    1.7720    0.0000 Cl  0  0  0  0  0  0  0  0  0  0  0  0
   14.2598   -0.4392    0.0000 C   0  0  0  0  0  0  0  0  0  0  0  0
   15.5522    0.3222    0.0000 C   0  0  0  0  0  0  0  0  0  0  0  0
   15.5424    1.8222    0.0000 C   0  0  0  0  0  0  0  0  0  0  0  0
   14.2292    2.5576    0.0000 C   0  0  0  0  0  0  0  0  0  0  0  0
   12.9419    1.8003    0.0000 C   0  0  0  0  0  0  0  0  0  0  0  0
   16.8561   -0.4227    0.0000 F   0  0  0  0  0  0  0  0  0  0  0  0
   -3.6996   -4.9798    0.0000 C   0  0  0  0  0  0  0  0  0  0  0  0
   -4.9889   -4.2097    0.0000 N   0  0  0  0  0  0  0  0  0  0  0  0
   -6.2886   -4.9465    0.0000 C   0  0  0  0  0  0  0  0  0  0  0  0
   -7.5779   -4.1763    0.0000 C   0  0  0  0  0  0  0  0  0  0  0  0
   -8.8862   -4.9129    0.0000 S   0  0  0  0  0  0  0  0  0  0  0  0
  -10.1754   -4.1428    0.0000 C   0  0  0  0  0  0  0  0  0  0  0  0
   -8.1514   -6.1978    0.0000 O   0  0  0  0  0  0  0  0  0  0  0  0
   -9.6498   -6.1978    0.0000 O   0  0  0  0  0  0  0  0  0  0  0  0
 16 17  1  0  0  0  0
 37 39  2  0  0  0  0
 37 40  2  0  0  0  0
 17 18  2  0  0  0  0
  7  8  1  0  0  0  0
 18 19  1  0  0  0  0
  8 11  2  0  0  0  0
 19 20  2  0  0  0  0
 20 21  1  0  0  0  0
 10  9  2  0  0  0  0
 21 22  2  0  0  0  0
 22 17  1  0  0  0  0
  9  6  1  0  0  0  0
 20 23  1  0  0  0  0
  1  2  1  0  0  0  0
 23 24  1  0  0  0  0
  2  3  2  0  0  0  0
 24 25  1  0  0  0  0
 10 11  1  0  0  0  0
 21 26  1  0  0  0  0
  3  4  1  0  0  0  0
 25 27  2  0  0  0  0
 11 12  1  0  0  0  0
 27 28  1  0  0  0  0
  4  5  1  0  0  0  0
 28 29  2  0  0  0  0
 12 13  2  0  0  0  0
 29 30  1  0  0  0  0
  5  1  2  0  0  0  0
 30 31  2  0  0  0  0
 31 25  1  0  0  0  0
 13 14  1  0  0  0  0
 28 32  1  0  0  0  0
  6  5  1  0  0  0  0
  3 33  1  0  0  0  0
 14 15  2  0  0  0  0
 33 34  1  0  0  0  0
 15 10  1  0  0  0  0
 34 35  1  0  0  0  0
 35 36  1  0  0  0  0
 15 16  1  0  0  0  0
 36 37  1  0  0  0  0
  6  7  2  0  0  0  0
 37 38  1  0  0  0  0
M  END
> <Value>
5.899998417198648

> <Relation>
<

> <SourceURI>
mol:CHEMBL554

$$$$

Generated by Molecular Materials Informatics

 22 24  0  0  0  0  0  0  0  0999 V2000
    1.7212  -11.3063    0.0000 F   0  0  0  0  0  0  0  0  0  0  0  0
    3.0202   -4.5563    0.0000 N   0  0  0  0  0  0  0  0  0  0  0  0
    0.4222   -0.0562    0.0000 N   0  0  0  0  0  0  0  0  0  0  0  0
    1.7212   -5.3063    0.0000 C   0  0  0  0  0  0  0  0  0  0  0  0
    1.7212   -6.8063    0.0000 C   0  0  0  0  0  0  0  0  0  0  0  0
    1.7212   -2.3062    0.0000 C   0  0  0  0  0  0  0  0  0  0  0  0
    0.4222   -4.5563    0.0000 C   0  0  0  0  0  0  0  0  0  0  0  0
    3.0202   -3.0563    0.0000 C   0  0  0  0  0  0  0  0  0  0  0  0
    0.4222   -3.0563    0.0000 C   0  0  0  0  0  0  0  0  0  0  0  0
    3.0202   -7.5563    0.0000 C   0  0  0  0  0  0  0  0  0  0  0  0
    0.4222   -7.5563    0.0000 C   0  0  0  0  0  0  0  0  0  0  0  0
    1.7212   -0.8062    0.0000 C   0  0  0  0  0  0  0  0  0  0  0  0
    1.7212   -9.8063    0.0000 C   0  0  0  0  0  0  0  0  0  0  0  0
    0.4222    1.4438    0.0000 C   0  0  0  0  0  0  0  0  0  0  0  0
    3.0202   -9.0563    0.0000 C   0  0  0  0  0  0  0  0  0  0  0  0
    0.4222   -9.0563    0.0000 C   0  0  0  0  0  0  0  0  0  0  0  0
   -0.8768    2.1938    0.0000 C   0  0  0  0  0  0  0  0  0  0  0  0
    1.7212    2.1938    0.0000 C   0  0  0  0  0  0  0  0  0  0  0  0
    0.4222    4.4438    0.0000 C   0  0  0  0  0  0  0  0  0  0  0  0
   -0.8768    3.6938    0.0000 C   0  0  0  0  0  0  0  0  0  0  0  0
    1.7212    3.6938    0.0000 C   0  0  0  0  0  0  0  0  0  0  0  0
    0.4222    5.9438    0.0000 C   0  0  0  0  0  0  0  0  0  0  0  0
  1 13  1  0  0  0  0
  2  4  1  0  0  0  0
  2  8  2  0  0  0  0
  3 12  1  0  0  0  0
  3 14  1  0  0  0  0
  4  5  1  0  0  0  0
  4  7  2  0  0  0  0
  5 10  2  0  0  0  0
  5 11  1  0  0  0  0
  6  8  1  0  0  0  0
  6  9  2  0  0  0  0
  6 12  1  0  0  0  0
  7  9  1  0  0  0  0
 10 15  1  0  0  0  0
 11 16  2  0  0  0  0
 13 15  2  0  0  0  0
 13 16  1  0  0  0  0
 14 17  2  0  0  0  0
 14 18  1  0  0  0  0
 17 20  1  0  0  0  0
 18 21  2  0  0  0  0
 19 20  2  0  0  0  0
 19 21  1  0  0  0  0
 19 22  1  0  0  0  0
M  END
> <Value>
5.300000202445418

> <Relation>
<

> <SourceURI>
mol:CHEMBL1986899

$$$$

Generated by Molecular Materials Informatics

 31 34  0  0  0  0  0  0  0  0999 V2000
    9.6089    3.5330    0.0000 C   0  0  0  0  0  0  0  0  0  0  0  0
    9.6089    2.0330    0.0000 C   0  0  0  0  0  0  0  0  0  0  0  0
    8.3098    1.2829    0.0000 C   0  0  0  0  0  0  0  0  0  0  0  0
    7.0107    2.0330    0.0000 C   0  0  0  0  0  0  0  0  0  0  0  0
    7.0107    3.5330    0.0000 C   0  0  0  0  0  0  0  0  0  0  0  0
    8.3098    4.2830    0.0000 C   0  0  0  0  0  0  0  0  0  0  0  0
    5.7118    1.2829    0.0000 C   0  0  0  0  0  0  0  0  0  0  0  0
    5.7118   -0.2171    0.0000 O   0  0  0  0  0  0  0  0  0  0  0  0
    4.4127    2.0330    0.0000 N   0  0  0  0  0  0  0  0  0  0  0  0
    3.1136    1.2829    0.0000 C   0  0  0  0  0  0  0  0  0  0  0  0
    4.4127    3.5330    0.0000 C   0  0  0  0  0  0  0  0  0  0  0  0
    3.1136   -0.2171    0.0000 C   0  0  0  0  0  0  0  0  0  0  0  0
    1.8147   -0.9671    0.0000 C   0  0  0  0  0  0  0  0  0  0  0  0
    1.8147    2.0330    0.0000 C   0  0  0  0  0  0  0  0  0  0  0  0
    0.5156    1.2829    0.0000 C   0  0  0  0  0  0  0  0  0  0  0  0
    0.5156   -0.2171    0.0000 C   0  0  0  0  0  0  0  0  0  0  0  0
   -0.9109   -0.6805    0.0000 N   0  0  0  0  0  0  0  0  0  0  0  0
   -1.7927    0.5329    0.0000 C   0  0  0  0  0  0  0  0  0  0  0  0
   -0.9109    1.7466    0.0000 N   0  0  0  0  0  0  0  0  0  0  0  0
   -3.2927    0.5329    0.0000 N   0  0  0  0  0  0  0  0  0  0  0  0
   -4.0427   -0.7660    0.0000 C   0  0  0  0  0  0  0  0  0  0  0  0
   -5.5427   -0.7660    0.0000 C   0  0  0  0  0  0  0  0  0  0  0  0
   -3.2927   -2.0651    0.0000 O   0  0  0  0  0  0  0  0  0  0  0  0
   -6.2927   -2.0651    0.0000 C   0  0  0  0  0  0  0  0  0  0  0  0
   -7.7927   -2.0651    0.0000 C   0  0  0  0  0  0  0  0  0  0  0  0
   -8.5427   -0.7660    0.0000 C   0  0  0  0  0  0  0  0  0  0  0  0
   -7.7927    0.5329    0.0000 C   0  0  0  0  0  0  0  0  0  0  0  0
   -6.2927    0.5329    0.0000 C   0  0  0  0  0  0  0  0  0  0  0  0
   -1.3745   -2.1071    0.0000 C   0  0  0  0  0  0  0  0  0  0  0  0
  -10.0427   -0.7660    0.0000 C   0  0  0  0  0  0  0  0  0  0  0  0
  -11.5427   -0.7660    0.0000 N   0  0  0  0  0  0  0  0  0  0  0  0
 15 16  1  0  0  0  0
  4  7  1  0  0  0  0
  1  2  1  0  0  0  0
  7  8  2  0  0  0  0
  1  6  1  0  0  0  0
  7  9  1  0  0  0  0
 16 17  1  0  0  0  0
 17 18  1  0  0  0  0
 18 19  2  0  0  0  0
 19 15  1  0  0  0  0
  2  3  1  0  0  0  0
 18 20  1  0  0  0  0
  9 10  1  0  0  0  0
 20 21  1  0  0  0  0
  3  4  1  0  0  0  0
 21 22  1  0  0  0  0
  9 11  1  0  0  0  0
 21 23  2  0  0  0  0
  4  5  1  0  0  0  0
 22 24  2  0  0  0  0
 10 12  2  0  0  0  0
 24 25  1  0  0  0  0
  5  6  1  0  0  0  0
 25 26  2  0  0  0  0
 12 13  1  0  0  0  0
 26 27  1  0  0  0  0
 13 16  2  0  0  0  0
 27 28  2  0  0  0  0
 28 22  1  0  0  0  0
 17 29  1  0  0  0  0
 15 14  2  0  0  0  0
 26 30  1  0  0  0  0
 14 10  1  0  0  0  0
 30 31  3  0  0  0  0
M  END
> <Value>
5.899998417198648

> <Relation>
<

> <SourceURI>
mol:CHEMBL519697

$$$$

Generated by Molecular Materials Informatics

 26 28  0  0  0  0  0  0  0  0999 V2000
    1.8188   -4.5749    0.0000 F   0  0  0  0  0  0  0  0  0  0  0  0
    3.1177    0.6750    0.0000 O   0  0  0  0  0  0  0  0  0  0  0  0
    8.3137    6.6748    0.0000 O   0  0  0  0  0  0  0  0  0  0  0  0
    5.7158    0.6750    0.0000 N   0  0  0  0  0  0  0  0  0  0  0  0
    4.4167   -9.0747    0.0000 N   0  0  0  0  0  0  0  0  0  0  0  0
    4.4167   -4.5749    0.0000 C   0  0  0  0  0  0  0  0  0  0  0  0
    4.4167   -1.5750    0.0000 C   0  0  0  0  0  0  0  0  0  0  0  0
    3.1177   -3.8249    0.0000 C   0  0  0  0  0  0  0  0  0  0  0  0
    4.4167   -6.0748    0.0000 C   0  0  0  0  0  0  0  0  0  0  0  0
    4.4167   -0.0750    0.0000 C   0  0  0  0  0  0  0  0  0  0  0  0
    3.1177   -2.3250    0.0000 C   0  0  0  0  0  0  0  0  0  0  0  0
    5.7158   -3.8249    0.0000 C   0  0  0  0  0  0  0  0  0  0  0  0
    5.7158   -2.3250    0.0000 C   0  0  0  0  0  0  0  0  0  0  0  0
    5.7158    2.1749    0.0000 C   0  0  0  0  0  0  0  0  0  0  0  0
    7.0147    2.9249    0.0000 C   0  0  0  0  0  0  0  0  0  0  0  0
    3.1177   -6.8248    0.0000 C   0  0  0  0  0  0  0  0  0  0  0  0
    5.7158   -6.8248    0.0000 C   0  0  0  0  0  0  0  0  0  0  0  0
    7.0147    4.4248    0.0000 C   0  0  0  0  0  0  0  0  0  0  0  0
    8.3137    5.1748    0.0000 C   0  0  0  0  0  0  0  0  0  0  0  0
    8.3137    2.1749    0.0000 C   0  0  0  0  0  0  0  0  0  0  0  0
    3.1177   -8.3248    0.0000 C   0  0  0  0  0  0  0  0  0  0  0  0
    5.7158   -8.3248    0.0000 C   0  0  0  0  0  0  0  0  0  0  0  0
    9.6128    4.4248    0.0000 C   0  0  0  0  0  0  0  0  0  0  0  0
    9.6128    2.9249    0.0000 C   0  0  0  0  0  0  0  0  0  0  0  0
    4.4167    2.9249    0.0000 C   0  0  0  0  0  0  0  0  0  0  0  0
    7.0147    7.4248    0.0000 C   0  0  0  0  0  0  0  0  0  0  0  0
  1  8  1  0  0  0  0
  2 10  2  0  0  0  0
  3 19  1  0  0  0  0
  3 26  1  0  0  0  0
  4 10  1  0  0  0  0
  4 14  1  0  0  0  0
  5 21  2  0  0  0  0
  5 22  1  0  0  0  0
  6  8  1  0  0  0  0
  6  9  1  0  0  0  0
  6 12  2  0  0  0  0
  7 10  1  0  0  0  0
  7 11  1  0  0  0  0
  7 13  2  0  0  0  0
  8 11  2  0  0  0  0
  9 16  2  0  0  0  0
  9 17  1  0  0  0  0
 12 13  1  0  0  0  0
 14 15  1  0  0  0  0
 14 25  1  0  0  0  0
 15 18  2  0  0  0  0
 15 20  1  0  0  0  0
 16 21  1  0  0  0  0
 17 22  2  0  0  0  0
 18 19  1  0  0  0  0
 19 23  2  0  0  0  0
 20 24  2  0  0  0  0
 23 24  1  0  0  0  0
M  END
> <Value>
5.899998417198648

> <Relation>
<

> <SourceURI>
mol:CHEMBL2004934

$$$$

Generated by Molecular Materials Informatics

 23 25  0  0  0  0  0  0  0  0999 V2000
   -4.6828    2.8801    0.0000 F   0  0  0  0  0  0  0  0  0  0  0  0
   -0.8213   -3.0238    0.0000 N   0  0  0  0  0  0  0  0  0  0  0  0
    1.9044   -3.3104    0.0000 N   0  0  0  0  0  0  0  0  0  0  0  0
   -2.2119    3.6831    0.0000 N   0  0  0  0  0  0  0  0  0  0  0  0
    0.2591    4.4860    0.0000 N   0  0  0  0  0  0  0  0  0  0  0  0
    1.3395    9.5687    0.0000 N   0  0  0  0  0  0  0  0  0  0  0  0
   -0.8213   -0.5968    0.0000 C   0  0  0  0  0  0  0  0  0  0  0  0
    0.6053   -1.0603    0.0000 C   0  0  0  0  0  0  0  0  0  0  0  0
   -1.2849    0.8299    0.0000 C   0  0  0  0  0  0  0  0  0  0  0  0
    0.6053   -2.5603    0.0000 C   0  0  0  0  0  0  0  0  0  0  0  0
   -1.7030   -1.8103    0.0000 C   0  0  0  0  0  0  0  0  0  0  0  0
   -0.2811    1.9447    0.0000 C   0  0  0  0  0  0  0  0  0  0  0  0
   -0.7448    3.3712    0.0000 C   0  0  0  0  0  0  0  0  0  0  0  0
   -2.7521    1.1417    0.0000 C   0  0  0  0  0  0  0  0  0  0  0  0
    1.9044   -0.3103    0.0000 C   0  0  0  0  0  0  0  0  0  0  0  0
   -3.2157    2.5683    0.0000 C   0  0  0  0  0  0  0  0  0  0  0  0
    3.2033   -1.0603    0.0000 C   0  0  0  0  0  0  0  0  0  0  0  0
    3.2033   -2.5603    0.0000 C   0  0  0  0  0  0  0  0  0  0  0  0
    0.7993    7.0273    0.0000 C   0  0  0  0  0  0  0  0  0  0  0  0
   -0.2046    5.9126    0.0000 C   0  0  0  0  0  0  0  0  0  0  0  0
    1.8029    8.1421    0.0000 C   0  0  0  0  0  0  0  0  0  0  0  0
   -0.3155    8.0310    0.0000 C   0  0  0  0  0  0  0  0  0  0  0  0
    1.9140    6.0237    0.0000 C   0  0  0  0  0  0  0  0  0  0  0  0
  1 16  1  0  0  0  0
  2 10  1  0  0  0  0
  2 11  1  0  0  0  0
  3 10  2  0  0  0  0
  3 18  1  0  0  0  0
  4 13  1  0  0  0  0
  4 16  2  0  0  0  0
  5 13  1  0  0  0  0
  5 20  1  0  0  0  0
  6 21  1  0  0  0  0
  7  8  1  0  0  0  0
  7  9  1  0  0  0  0
  7 11  2  0  0  0  0
  8 10  1  0  0  0  0
  8 15  2  0  0  0  0
  9 12  1  0  0  0  0
  9 14  2  0  0  0  0
 12 13  2  0  0  0  0
 14 16  1  0  0  0  0
 15 17  1  0  0  0  0
 17 18  2  0  0  0  0
 19 20  1  0  0  0  0
 19 21  1  0  0  0  0
 19 22  1  0  0  0  0
 19 23  1  0  0  0  0
M  END
> <Value>
7.599980364934842

> <Relation>
=

> <SourceURI>
mol:CHEMBL1987261

$$$$

Generated by Molecular Materials Informatics

 21 24  0  0  0  0  0  0  0  0999 V2000
    1.7482   -4.4628    0.0000 S   0  0  0  0  0  0  0  0  0  0  0  0
   -0.6334   -3.2493    0.0000 N   0  0  0  0  0  0  0  0  0  0  0  0
   -2.9418   -3.9993    0.0000 N   0  0  0  0  0  0  0  0  0  0  0  0
    1.7482   -2.0359    0.0000 N   0  0  0  0  0  0  0  0  0  0  0  0
   -1.0516   -5.8895    0.0000 N   0  0  0  0  0  0  0  0  0  0  0  0
   -1.6943    3.3696    0.0000 N   0  0  0  0  0  0  0  0  0  0  0  0
   -1.5151   -2.0359    0.0000 C   0  0  0  0  0  0  0  0  0  0  0  0
    0.8666   -3.2493    0.0000 C   0  0  0  0  0  0  0  0  0  0  0  0
   -2.9418   -2.4993    0.0000 C   0  0  0  0  0  0  0  0  0  0  0  0
   -1.5151   -4.4628    0.0000 C   0  0  0  0  0  0  0  0  0  0  0  0
    3.1747   -3.9993    0.0000 C   0  0  0  0  0  0  0  0  0  0  0  0
    3.1747   -2.4993    0.0000 C   0  0  0  0  0  0  0  0  0  0  0  0
   -1.2033   -0.5686    0.0000 C   0  0  0  0  0  0  0  0  0  0  0  0
   -4.0565   -1.4957    0.0000 C   0  0  0  0  0  0  0  0  0  0  0  0
   -2.3180    0.4351    0.0000 C   0  0  0  0  0  0  0  0  0  0  0  0
   -3.7445   -0.0284    0.0000 C   0  0  0  0  0  0  0  0  0  0  0  0
    4.4738   -4.7493    0.0000 C   0  0  0  0  0  0  0  0  0  0  0  0
    4.4738   -1.7493    0.0000 C   0  0  0  0  0  0  0  0  0  0  0  0
    5.7729   -3.9993    0.0000 C   0  0  0  0  0  0  0  0  0  0  0  0
    5.7729   -2.4993    0.0000 C   0  0  0  0  0  0  0  0  0  0  0  0
   -2.0062    1.9023    0.0000 C   0  0  0  0  0  0  0  0  0  0  0  0
  1  8  1  0  0  0  0
  1 11  1  0  0  0  0
  2  7  1  0  0  0  0
  2  8  1  0  0  0  0
  2 10  1  0  0  0  0
  3  9  1  0  0  0  0
  3 10  2  0  0  0  0
  4  8  2  0  0  0  0
  4 12  1  0  0  0  0
  5 10  1  0  0  0  0
  6 21  3  0  0  0  0
  7  9  1  0  0  0  0
  7 13  2  0  0  0  0
  9 14  2  0  0  0  0
 11 12  2  0  0  0  0
 11 17  1  0  0  0  0
 12 18  1  0  0  0  0
 13 15  1  0  0  0  0
 14 16  1  0  0  0  0
 15 16  2  0  0  0  0
 15 21  1  0  0  0  0
 17 19  1  0  0  0  0
 18 20  1  0  0  0  0
 19 20  1  0  0  0  0
M  END
> <Value>
5.300000202445418

> <Relation>
<

> <SourceURI>
mol:CHEMBL1996345

$$$$

Generated by Molecular Materials Informatics

 29 30  0  0  0  0  0  0  0  0999 V2000
    2.3057   -6.0265    0.0000 S   0  0  0  0  0  0  0  0  0  0  0  0
   -1.5914    0.7235    0.0000 O   0  0  0  0  0  0  0  0  0  0  0  0
    3.6048    0.7235    0.0000 O   0  0  0  0  0  0  0  0  0  0  0  0
   -2.8903   -1.5265    0.0000 O   0  0  0  0  0  0  0  0  0  0  0  0
   -2.4730    0.4370    0.0000 O   0  0  0  0  0  0  0  0  0  0  0  0
    3.6048   -6.7765    0.0000 O   0  0  0  0  0  0  0  0  0  0  0  0
    1.5557   -7.3255    0.0000 O   0  0  0  0  0  0  0  0  0  0  0  0
   -4.1894    0.7235    0.0000 O   0  0  0  0  0  0  0  0  0  0  0  0
    4.9039    2.9735    0.0000 O   0  0  0  0  0  0  0  0  0  0  0  0
    1.0068   -5.2765    0.0000 N   0  0  0  0  0  0  0  0  0  0  0  0
    1.0068   -0.7765    0.0000 C   0  0  0  0  0  0  0  0  0  0  0  0
    1.0068    0.7235    0.0000 C   0  0  0  0  0  0  0  0  0  0  0  0
   -0.2923   -1.5265    0.0000 C   0  0  0  0  0  0  0  0  0  0  0  0
   -0.2923    1.4735    0.0000 C   0  0  0  0  0  0  0  0  0  0  0  0
    2.3057    1.4735    0.0000 C   0  0  0  0  0  0  0  0  0  0  0  0
    2.3057   -1.5265    0.0000 C   0  0  0  0  0  0  0  0  0  0  0  0
   -0.2923   -3.0265    0.0000 C   0  0  0  0  0  0  0  0  0  0  0  0
    1.0068   -3.7765    0.0000 C   0  0  0  0  0  0  0  0  0  0  0  0
   -1.5914   -0.7765    0.0000 C   0  0  0  0  0  0  0  0  0  0  0  0
    2.3057   -3.0265    0.0000 C   0  0  0  0  0  0  0  0  0  0  0  0
   -0.2923    2.9735    0.0000 C   0  0  0  0  0  0  0  0  0  0  0  0
    2.3057    2.9735    0.0000 C   0  0  0  0  0  0  0  0  0  0  0  0
    1.0068    3.7235    0.0000 C   0  0  0  0  0  0  0  0  0  0  0  0
   -2.8903    1.4735    0.0000 C   0  0  0  0  0  0  0  0  0  0  0  0
    4.9039    1.4735    0.0000 C   0  0  0  0  0  0  0  0  0  0  0  0
    3.0557   -4.7274    0.0000 C   0  0  0  0  0  0  0  0  0  0  0  0
   -2.8903   -3.0265    0.0000 C   0  0  0  0  0  0  0  0  0  0  0  0
   -5.4885    1.4735    0.0000 C   0  0  0  0  0  0  0  0  0  0  0  0
    6.2030    3.7235    0.0000 C   0  0  0  0  0  0  0  0  0  0  0  0
  1  6  2  0  0  0  0
  1  7  2  0  0  0  0
  1 10  1  0  0  0  0
  1 26  1  0  0  0  0
  2 14  1  0  0  0  0
  2 24  1  0  0  0  0
  3 15  1  0  0  0  0
  3 25  1  0  0  0  0
  4 19  1  0  0  0  0
  4 27  1  0  0  0  0
  5 19  2  0  0  0  0
  8 24  1  0  0  0  0
  8 28  1  0  0  0  0
  9 25  1  0  0  0  0
  9 29  1  0  0  0  0
 10 18  1  0  0  0  0
 11 12  1  0  0  0  0
 11 13  1  0  0  0  0
 11 16  2  0  0  0  0
 12 14  1  0  0  0  0
 12 15  2  0  0  0  0
 13 17  2  0  0  0  0
 13 19  1  0  0  0  0
 14 21  2  0  0  0  0
 15 22  1  0  0  0  0
 16 20  1  0  0  0  0
 17 18  1  0  0  0  0
 18 20  2  0  0  0  0
 21 23  1  0  0  0  0
 22 23  2  0  0  0  0
M  END
> <Value>
5.300000202445418

> <Relation>
=

> <SourceURI>
mol:CHEMBL2004025

$$$$

Generated by Molecular Materials Informatics

 23 26  0  0  0  0  0  0  0  0999 V2000
   -0.8060    3.5309    0.0000 Br  0  0  0  0  0  0  0  0  0  0  0  0
    3.7560   -3.1393    0.0000 O   0  0  0  0  0  0  0  0  0  0  0  0
    1.7411    3.0189    0.0000 O   0  0  0  0  0  0  0  0  0  0  0  0
    9.4097    1.5323    0.0000 O   0  5  0  0  0  0  0  0  0  0  0  0
    9.1666   -1.0544    0.0000 O   0  0  0  0  0  0  0  0  0  0  0  0
    2.5711    0.5569    0.0000 N   0  0  0  0  0  0  0  0  0  0  0  0
    0.8542   -1.3929    0.0000 N   0  0  0  0  0  0  0  0  0  0  0  0
    8.5415    0.3091    0.0000 N   0  3  0  0  0  0  0  0  0  0  0  0
    2.2755   -0.9137    0.0000 C   0  0  0  0  0  0  0  0  0  0  0  0
    4.0611    0.7302    0.0000 C   0  0  0  0  0  0  0  0  0  0  0  0
    4.6864   -0.6333    0.0000 C   0  0  0  0  0  0  0  0  0  0  0  0
    3.5828   -1.6493    0.0000 C   0  0  0  0  0  0  0  0  0  0  0  0
    1.4455    1.5482    0.0000 C   0  0  0  0  0  0  0  0  0  0  0  0
    0.0240    1.0691    0.0000 C   0  0  0  0  0  0  0  0  0  0  0  0
   -0.2716   -0.4015    0.0000 C   0  0  0  0  0  0  0  0  0  0  0  0
    6.1797   -0.7737    0.0000 C   0  0  0  0  0  0  0  0  0  0  0  0
    4.9295    1.9533    0.0000 C   0  0  0  0  0  0  0  0  0  0  0  0
   -1.1016    2.0603    0.0000 C   0  0  0  0  0  0  0  0  0  0  0  0
    7.0481    0.4494    0.0000 C   0  0  0  0  0  0  0  0  0  0  0  0
    6.4228    1.8129    0.0000 C   0  0  0  0  0  0  0  0  0  0  0  0
   -1.6929   -0.8807    0.0000 C   0  0  0  0  0  0  0  0  0  0  0  0
   -2.5231    1.5811    0.0000 C   0  0  0  0  0  0  0  0  0  0  0  0
   -2.8187    0.1105    0.0000 C   0  0  0  0  0  0  0  0  0  0  0  0
  1 18  1  0  0  0  0
  2 12  2  0  0  0  0
  3 13  2  0  0  0  0
  4  8  1  0  0  0  0
  5  8  2  0  0  0  0
  6  9  1  0  0  0  0
  6 10  1  0  0  0  0
  6 13  1  0  0  0  0
  7  9  2  0  0  0  0
  7 15  1  0  0  0  0
  8 19  1  0  0  0  0
  9 12  1  0  0  0  0
 10 11  1  0  0  0  0
 10 17  2  0  0  0  0
 11 12  1  0  0  0  0
 11 16  2  0  0  0  0
 13 14  1  0  0  0  0
 14 15  1  0  0  0  0
 14 18  2  0  0  0  0
 15 21  2  0  0  0  0
 16 19  1  0  0  0  0
 17 20  1  0  0  0  0
 18 22  1  0  0  0  0
 19 20  2  0  0  0  0
 21 23  1  0  0  0  0
 22 23  2  0  0  0  0
M  CHG  2   4  -1   8   1
M  END
> <Value>
5.59999938302362

> <Relation>
<

> <SourceURI>
mol:CHEMBL1976158

$$$$

Generated by Molecular Materials Informatics

 38 42  0  0  0  0  0  0  0  0999 V2000
    4.3230  -20.3788    0.0000 N   0  0  0  0  0  0  0  0  0  0  0  0
    4.3207  -21.8835    0.0000 C   0  0  0  0  0  0  0  0  0  0  0  0
    5.6168  -22.6344    0.0000 N   0  0  0  0  0  0  0  0  0  0  0  0
    5.6134  -19.6284    0.0000 C   0  0  0  0  0  0  0  0  0  0  0  0
    6.9190  -20.3717    0.0000 C   0  0  0  0  0  0  0  0  0  0  0  0
    6.9201  -21.8835    0.0000 C   0  0  0  0  0  0  0  0  0  0  0  0
    8.3581  -22.3499    0.0000 N   0  0  0  0  0  0  0  0  0  0  0  0
    9.2461  -21.1261    0.0000 C   0  0  0  0  0  0  0  0  0  0  0  0
    8.3567  -19.9037    0.0000 C   0  0  0  0  0  0  0  0  0  0  0  0
    3.0207  -22.6317    0.0000 N   0  0  0  0  0  0  0  0  0  0  0  0
    5.6063  -18.1286    0.0000 N   0  0  0  0  0  0  0  0  0  0  0  0
    3.0185  -24.1317    0.0000 C   0  0  0  0  0  0  0  0  0  0  0  0
    6.9016  -17.3724    0.0000 C   0  0  0  0  0  0  0  0  0  0  0  0
    1.7197  -24.8808    0.0000 C   0  0  0  0  0  0  0  0  0  0  0  0
    1.7168  -26.3794    0.0000 C   0  0  0  0  0  0  0  0  0  0  0  0
    4.3167  -24.8806    0.0000 C   0  0  0  0  0  0  0  0  0  0  0  0
    8.2016  -18.1217    0.0000 C   0  0  0  0  0  0  0  0  0  0  0  0
    9.4961  -17.3670    0.0000 C   0  0  0  0  0  0  0  0  0  0  0  0
    9.4899  -15.8655    0.0000 C   0  0  0  0  0  0  0  0  0  0  0  0
    8.1785  -15.1219    0.0000 C   0  0  0  0  0  0  0  0  0  0  0  0
    6.8892  -15.8810    0.0000 C   0  0  0  0  0  0  0  0  0  0  0  0
    0.4216  -24.1295    0.0000 O   0  0  0  0  0  0  0  0  0  0  0  0
    0.4232  -22.6295    0.0000 C   0  0  0  0  0  0  0  0  0  0  0  0
    5.5839  -15.1421    0.0000 C   0  0  0  0  0  0  0  0  0  0  0  0
    5.5710  -13.6422    0.0000 N   0  0  0  0  0  0  0  0  0  0  0  0
    4.2914  -15.9030    0.0000 O   0  0  0  0  0  0  0  0  0  0  0  0
    8.1661  -13.6219    0.0000 F   0  0  0  0  0  0  0  0  0  0  0  0
    4.3201  -26.3766    0.0000 C   0  0  0  0  0  0  0  0  0  0  0  0
    3.0236  -27.1330    0.0000 C   0  0  0  0  0  0  0  0  0  0  0  0
    3.3419  -28.5999    0.0000 C   0  0  0  0  0  0  0  0  0  0  0  0
    4.8357  -28.7501    0.0000 C   0  0  0  0  0  0  0  0  0  0  0  0
    5.4401  -27.3761    0.0000 N   0  0  0  0  0  0  0  0  0  0  0  0
    6.9341  -27.3703    0.0000 C   0  0  0  0  0  0  0  0  0  0  0  0
    7.6890  -28.6664    0.0000 C   0  0  0  0  0  0  0  0  0  0  0  0
    7.6790  -26.0684    0.0000 O   0  0  0  0  0  0  0  0  0  0  0  0
    9.1890  -28.6604    0.0000 N   0  0  0  0  0  0  0  0  0  0  0  0
    9.9439  -29.9566    0.0000 C   0  0  0  0  0  0  0  0  0  0  0  0
    9.9339  -27.3588    0.0000 C   0  0  0  0  0  0  0  0  0  0  0  0
  7  8  1  0  0  0  0
 17 18  1  0  0  0  0
  8  9  2  0  0  0  0
 18 19  2  0  0  0  0
  9  5  1  0  0  0  0
 19 20  1  0  0  0  0
  4  1  1  0  0  0  0
 20 21  2  0  0  0  0
 21 13  1  0  0  0  0
  2 10  1  0  0  0  0
 14 22  1  0  0  0  0
  5  6  1  0  0  0  0
 22 23  1  0  0  0  0
  4 11  1  0  0  0  0
 21 24  1  0  0  0  0
 24 25  1  0  0  0  0
 10 12  1  0  0  0  0
 24 26  2  0  0  0  0
  2  3  1  0  0  0  0
 20 27  1  0  0  0  0
 28 29  1  0  0  0  0
 11 13  1  0  0  0  0
  3  6  2  0  0  0  0
 12 14  2  0  0  0  0
  1  2  2  0  0  0  0
 14 15  1  0  0  0  0
 29 30  1  0  0  0  0
 30 31  1  0  0  0  0
 31 32  1  0  0  0  0
 32 28  1  0  0  0  0
 15 29  2  0  0  0  0
 32 33  1  0  0  0  0
  5  4  2  0  0  0  0
 33 34  1  0  0  0  0
 28 16  2  0  0  0  0
 33 35  2  0  0  0  0
 16 12  1  0  0  0  0
 34 36  1  0  0  0  0
  6  7  1  0  0  0  0
 36 37  1  0  0  0  0
 13 17  2  0  0  0  0
 36 38  1  0  0  0  0
M  END
> <Value>
7.0

> <Relation>
=

> <SourceURI>
mol:CHEMBL461876

$$$$

Generated by Molecular Materials Informatics

 29 31  0  0  0  0  0  0  0  0999 V2000
    7.3396    4.7437    0.0000 F   0  0  0  0  0  0  0  0  0  0  0  0
    6.7905    6.7928    0.0000 F   0  0  0  0  0  0  0  0  0  0  0  0
    5.2905    4.1947    0.0000 F   0  0  0  0  0  0  0  0  0  0  0  0
    0.8443    8.4937    0.0000 F   0  0  0  0  0  0  0  0  0  0  0  0
    2.1434    3.2438    0.0000 O   0  0  0  0  0  0  0  0  0  0  0  0
   -0.4546   -7.2563    0.0000 O   0  0  0  0  0  0  0  0  0  0  0  0
    0.8443    5.4937    0.0000 N   0  0  0  0  0  0  0  0  0  0  0  0
    0.8443   -3.5062    0.0000 N   0  0  0  0  0  0  0  0  0  0  0  0
   -0.4546    3.2438    0.0000 N   0  0  0  0  0  0  0  0  0  0  0  0
    0.8443   -5.0062    0.0000 N   0  0  0  0  0  0  0  0  0  0  0  0
    4.7416    6.2437    0.0000 C   0  0  0  0  0  0  0  0  0  0  0  0
    2.1434    6.2437    0.0000 C   0  0  0  0  0  0  0  0  0  0  0  0
    6.0405    5.4937    0.0000 C   0  0  0  0  0  0  0  0  0  0  0  0
    3.4425    5.4937    0.0000 C   0  0  0  0  0  0  0  0  0  0  0  0
   -0.4546   -2.7562    0.0000 C   0  0  0  0  0  0  0  0  0  0  0  0
    2.1434    7.7437    0.0000 C   0  0  0  0  0  0  0  0  0  0  0  0
   -0.4546   -1.2562    0.0000 C   0  0  0  0  0  0  0  0  0  0  0  0
    4.7416    7.7437    0.0000 C   0  0  0  0  0  0  0  0  0  0  0  0
   -1.7537   -3.5062    0.0000 C   0  0  0  0  0  0  0  0  0  0  0  0
    3.4425    8.4937    0.0000 C   0  0  0  0  0  0  0  0  0  0  0  0
   -0.4546    1.7437    0.0000 C   0  0  0  0  0  0  0  0  0  0  0  0
    0.8443    3.9937    0.0000 C   0  0  0  0  0  0  0  0  0  0  0  0
   -1.7537   -0.5062    0.0000 C   0  0  0  0  0  0  0  0  0  0  0  0
    0.8443   -0.5062    0.0000 C   0  0  0  0  0  0  0  0  0  0  0  0
   -1.7537    0.9938    0.0000 C   0  0  0  0  0  0  0  0  0  0  0  0
    0.8443    0.9938    0.0000 C   0  0  0  0  0  0  0  0  0  0  0  0
   -1.7537   -5.0062    0.0000 C   0  0  0  0  0  0  0  0  0  0  0  0
   -0.4546   -5.7562    0.0000 C   0  0  0  0  0  0  0  0  0  0  0  0
   -3.0528   -2.7562    0.0000 C   0  0  0  0  0  0  0  0  0  0  0  0
  1 13  1  0  0  0  0
  2 13  1  0  0  0  0
  3 13  1  0  0  0  0
  4 16  1  0  0  0  0
  5 22  2  0  0  0  0
  6 28  2  0  0  0  0
  7 12  1  0  0  0  0
  7 22  1  0  0  0  0
  8 10  1  0  0  0  0
  8 15  2  0  0  0  0
  9 21  1  0  0  0  0
  9 22  1  0  0  0  0
 10 28  1  0  0  0  0
 11 13  1  0  0  0  0
 11 14  1  0  0  0  0
 11 18  2  0  0  0  0
 12 14  2  0  0  0  0
 12 16  1  0  0  0  0
 15 17  1  0  0  0  0
 15 19  1  0  0  0  0
 16 20  2  0  0  0  0
 17 23  2  0  0  0  0
 17 24  1  0  0  0  0
 18 20  1  0  0  0  0
 19 27  2  0  0  0  0
 19 29  1  0  0  0  0
 21 25  2  0  0  0  0
 21 26  1  0  0  0  0
 23 25  1  0  0  0  0
 24 26  2  0  0  0  0
 27 28  1  0  0  0  0
M  END
> <Value>
5.300000202445418

> <Relation>
<

> <SourceURI>
mol:CHEMBL1965033

$$$$

Generated by Molecular Materials Informatics

 39 43  0  0  0  0  0  0  0  0999 V2000
   -0.0759    3.3308    0.0000 S   0  0  0  0  0  0  0  0  0  0  0  0
    3.1199   10.1661    0.0000 O   0  0  0  0  0  0  0  0  0  0  0  0
   -4.4010   -3.9998    0.0000 O   0  0  0  0  0  0  0  0  0  0  0  0
    3.9488    1.3671    0.0000 N   0  0  0  0  0  0  0  0  0  0  0  0
    1.8997    7.4255    0.0000 N   0  0  0  0  0  0  0  0  0  0  0  0
    3.3997    7.4255    0.0000 N   0  0  0  0  0  0  0  0  0  0  0  0
    2.6497   -0.8829    0.0000 N   0  0  0  0  0  0  0  0  0  0  0  0
   -1.9301   -4.8027    0.0000 N   0  0  0  0  0  0  0  0  0  0  0  0
    0.7464   11.2228    0.0000 N   0  0  0  0  0  0  0  0  0  0  0  0
   -3.8608   -6.5410    0.0000 N   0  0  0  0  0  0  0  0  0  0  0  0
    1.3506    1.3671    0.0000 C   0  0  0  0  0  0  0  0  0  0  0  0
    1.3506    2.8671    0.0000 C   0  0  0  0  0  0  0  0  0  0  0  0
    2.6497    3.6171    0.0000 C   0  0  0  0  0  0  0  0  0  0  0  0
   -0.0759    0.9037    0.0000 C   0  0  0  0  0  0  0  0  0  0  0  0
    2.6497    0.6171    0.0000 C   0  0  0  0  0  0  0  0  0  0  0  0
    2.6497    5.1171    0.0000 C   0  0  0  0  0  0  0  0  0  0  0  0
   -0.5394   -0.5229    0.0000 C   0  0  0  0  0  0  0  0  0  0  0  0
   -0.9576    2.1171    0.0000 C   0  0  0  0  0  0  0  0  0  0  0  0
    3.9488    2.8671    0.0000 C   0  0  0  0  0  0  0  0  0  0  0  0
    1.4361    5.9990    0.0000 C   0  0  0  0  0  0  0  0  0  0  0  0
    3.8632    5.9990    0.0000 C   0  0  0  0  0  0  0  0  0  0  0  0
    0.4643   -1.6376    0.0000 C   0  0  0  0  0  0  0  0  0  0  0  0
   -2.0066   -0.8347    0.0000 C   0  0  0  0  0  0  0  0  0  0  0  0
    1.0181    8.6390    0.0000 C   0  0  0  0  0  0  0  0  0  0  0  0
   -1.4665   -3.3761    0.0000 C   0  0  0  0  0  0  0  0  0  0  0  0
    0.0006   -3.0641    0.0000 C   0  0  0  0  0  0  0  0  0  0  0  0
   -2.4703   -2.2614    0.0000 C   0  0  0  0  0  0  0  0  0  0  0  0
    1.6281   10.0093    0.0000 C   0  0  0  0  0  0  0  0  0  0  0  0
   -0.4737    8.4822    0.0000 C   0  0  0  0  0  0  0  0  0  0  0  0
   -3.3972   -5.1145    0.0000 C   0  0  0  0  0  0  0  0  0  0  0  0
   -2.8570   -7.6558    0.0000 C   0  0  0  0  0  0  0  0  0  0  0  0
    1.3566   12.5931    0.0000 C   0  0  0  0  0  0  0  0  0  0  0  0
   -0.7454   11.0661    0.0000 C   0  0  0  0  0  0  0  0  0  0  0  0
   -1.3899   -7.3439    0.0000 C   0  0  0  0  0  0  0  0  0  0  0  0
   -3.3206   -9.0823    0.0000 C   0  0  0  0  0  0  0  0  0  0  0  0
   -0.8497   -9.8852    0.0000 C   0  0  0  0  0  0  0  0  0  0  0  0
   -0.3861   -8.4587    0.0000 C   0  0  0  0  0  0  0  0  0  0  0  0
   -2.3168  -10.1970    0.0000 C   0  0  0  0  0  0  0  0  0  0  0  0
    0.1541  -10.9999    0.0000 C   0  0  0  0  0  0  0  0  0  0  0  0
  1 12  1  0  0  0  0
  1 18  1  0  0  0  0
  2 28  2  0  0  0  0
  3 30  2  0  0  0  0
  4 15  2  0  0  0  0
  4 19  1  0  0  0  0
  5  6  1  0  0  0  0
  5 20  1  0  0  0  0
  5 24  1  0  0  0  0
  6 21  2  0  0  0  0
  7 15  1  0  0  0  0
  8 25  1  0  0  0  0
  8 30  1  0  0  0  0
  9 28  1  0  0  0  0
  9 32  1  0  0  0  0
  9 33  1  0  0  0  0
 10 30  1  0  0  0  0
 10 31  1  0  0  0  0
 11 12  2  0  0  0  0
 11 14  1  0  0  0  0
 11 15  1  0  0  0  0
 12 13  1  0  0  0  0
 13 16  1  0  0  0  0
 13 19  2  0  0  0  0
 14 17  1  0  0  0  0
 14 18  2  0  0  0  0
 16 20  2  0  0  0  0
 16 21  1  0  0  0  0
 17 22  2  0  0  0  0
 17 23  1  0  0  0  0
 22 26  1  0  0  0  0
 23 27  2  0  0  0  0
 24 28  1  0  0  0  0
 24 29  1  0  0  0  0
 25 26  2  0  0  0  0
 25 27  1  0  0  0  0
 31 34  2  0  0  0  0
 31 35  1  0  0  0  0
 34 37  1  0  0  0  0
 35 38  2  0  0  0  0
 36 37  2  0  0  0  0
 36 38  1  0  0  0  0
 36 39  1  0  0  0  0
M  END
> <Value>
5.899998417198648

> <Relation>
<

> <SourceURI>
mol:CHEMBL2001485

$$$$

Generated by Molecular Materials Informatics

 33 37  0  0  0  0  0  0  0  0999 V2000
    9.6124    3.7842    0.0000 C   0  0  0  0  0  0  0  0  0  0  0  0
    0.0000    9.3790    0.0000 C   0  0  0  0  0  0  0  0  0  0  0  0
    4.7603    6.5780    0.0000 F   0  0  0  0  0  0  0  0  0  0  0  0
    5.9767   10.0792    0.0000 C   0  0  0  0  0  0  0  0  0  0  0  0
    4.7603   10.7794    0.0000 C   0  0  0  0  0  0  0  0  0  0  0  0
    9.6124   10.7794    0.0000 C   0  0  0  0  0  0  0  0  0  0  0  0
   12.0385    7.9785    0.0000 C   0  0  0  0  0  0  0  0  0  0  0  0
    2.2209    8.2474    0.0000 C   0  0  0  0  0  0  0  0  0  0  0  0
    9.6124    6.5780    0.0000 C   0  0  0  0  0  0  0  0  0  0  0  0
   17.8950    1.2095    0.0000 C   0  0  0  0  0  0  0  0  0  0  0  0
   17.1948    0.0000    0.0000 C   0  0  0  0  0  0  0  0  0  0  0  0
   14.4645    3.7842    0.0000 C   0  0  0  0  0  0  0  0  0  0  0  0
   13.2550    4.4773    0.0000 C   0  0  0  0  0  0  0  0  0  0  0  0
   16.9543    2.2493    0.0000 C   0  0  0  0  0  0  0  0  0  0  0  0
   15.8225    0.2901    0.0000 C   0  0  0  0  0  0  0  0  0  0  0  0
   14.4645    2.3837    0.0000 C   0  0  0  0  0  0  0  0  0  0  0  0
    8.4029   10.0792    0.0000 N   0  0  0  0  0  0  0  0  0  0  0  0
   10.8290   10.0792    0.0000 N   0  0  0  0  0  0  0  0  0  0  0  0
    2.2209   10.5107    0.0000 N   0  0  0  0  0  0  0  0  0  0  0  0
   10.8290    4.4773    0.0000 O   0  0  0  0  0  0  0  0  0  0  0  0
   13.2550    5.8778    0.0000 O   0  0  0  0  0  0  0  0  0  0  0  0
    7.1862    7.9785    0.0000 O   0  0  0  0  0  0  0  0  0  0  0  0
    1.4005    9.3790    0.0000 C   0  0  0  0  0  0  0  0  0  0  0  0
    4.7603    7.9785    0.0000 C   0  0  0  0  0  0  0  0  0  0  0  0
    5.9767    8.6787    0.0000 C   0  0  0  0  0  0  0  0  0  0  0  0
   10.8290    5.8778    0.0000 C   0  0  0  0  0  0  0  0  0  0  0  0
   12.0385    6.5780    0.0000 C   0  0  0  0  0  0  0  0  0  0  0  0
    8.4029    8.6787    0.0000 C   0  0  0  0  0  0  0  0  0  0  0  0
   10.8290    8.6787    0.0000 C   0  0  0  0  0  0  0  0  0  0  0  0
    3.5508   10.0792    0.0000 C   0  0  0  0  0  0  0  0  0  0  0  0
    3.5508    8.6787    0.0000 C   0  0  0  0  0  0  0  0  0  0  0  0
    9.6124    7.9785    0.0000 C   0  0  0  0  0  0  0  0  0  0  0  0
   15.6811    1.6835    0.0000 N   0  0  0  0  0  0  0  0  0  0  0  0
  1 20  1  0  0  0  0
  2 23  1  0  0  0  0
  3 24  1  0  0  0  0
  4  5  2  0  0  0  0
  4 25  1  0  0  0  0
  5 30  1  0  0  0  0
  6 17  1  0  0  0  0
  6 18  2  0  0  0  0
  7 27  2  0  0  0  0
  7 29  1  0  0  0  0
  8 23  2  0  0  0  0
  8 31  1  0  0  0  0
  9 26  2  0  0  0  0
  9 32  1  0  0  0  0
 10 11  1  0  0  0  0
 10 14  1  0  0  0  0
 11 15  1  0  0  0  0
 12 13  1  0  0  0  0
 12 16  1  0  0  0  0
 13 21  1  0  0  0  0
 14 33  1  0  0  0  0
 15 33  1  0  0  0  0
 16 33  1  0  0  0  0
 17 28  2  0  0  0  0
 18 29  1  0  0  0  0
 19 23  1  0  0  0  0
 19 30  1  0  0  0  0
 20 26  1  0  0  0  0
 21 27  1  0  0  0  0
 22 25  1  0  0  0  0
 22 28  1  0  0  0  0
 24 25  2  0  0  0  0
 24 31  1  0  0  0  0
 26 27  1  0  0  0  0
 28 32  1  0  0  0  0
 29 32  2  0  0  0  0
 30 31  2  0  0  0  0
M  END
> <Value>
5.59999938302362

> <Relation>
<

> <SourceURI>
mol:CHEMBL491473

$$$$

Generated by Molecular Materials Informatics

 17 19  0  0  0  0  0  0  0  0999 V2000
    3.1571    5.4521    0.0000 F   0  0  0  0  0  0  0  0  0  0  0  0
    0.4315   -3.2615    0.0000 N   0  0  0  0  0  0  0  0  0  0  0  0
   -0.4501   -2.0479    0.0000 N   0  0  0  0  0  0  0  0  0  0  0  0
   -0.0319    0.5921    0.0000 N   0  0  0  0  0  0  0  0  0  0  0  0
    1.8581   -1.2979    0.0000 C   0  0  0  0  0  0  0  0  0  0  0  0
    3.1571   -0.5479    0.0000 C   0  0  0  0  0  0  0  0  0  0  0  0
    1.8581   -2.7979    0.0000 C   0  0  0  0  0  0  0  0  0  0  0  0
    0.4315   -0.8344    0.0000 C   0  0  0  0  0  0  0  0  0  0  0  0
    3.1571    0.9521    0.0000 C   0  0  0  0  0  0  0  0  0  0  0  0
    4.4562   -1.2979    0.0000 C   0  0  0  0  0  0  0  0  0  0  0  0
    3.1571   -3.5479    0.0000 C   0  0  0  0  0  0  0  0  0  0  0  0
    4.4562   -2.7979    0.0000 C   0  0  0  0  0  0  0  0  0  0  0  0
    1.8581    1.7021    0.0000 C   0  0  0  0  0  0  0  0  0  0  0  0
    4.4562    1.7021    0.0000 C   0  0  0  0  0  0  0  0  0  0  0  0
    3.1571    3.9521    0.0000 C   0  0  0  0  0  0  0  0  0  0  0  0
    1.8581    3.2021    0.0000 C   0  0  0  0  0  0  0  0  0  0  0  0
    4.4562    3.2021    0.0000 C   0  0  0  0  0  0  0  0  0  0  0  0
  1 15  1  0  0  0  0
  2  3  1  0  0  0  0
  2  7  1  0  0  0  0
  3  8  2  0  0  0  0
  4  8  1  0  0  0  0
  5  6  2  0  0  0  0
  5  7  1  0  0  0  0
  5  8  1  0  0  0  0
  6  9  1  0  0  0  0
  6 10  1  0  0  0  0
  7 11  2  0  0  0  0
  9 13  2  0  0  0  0
  9 14  1  0  0  0  0
 10 12  2  0  0  0  0
 11 12  1  0  0  0  0
 13 16  1  0  0  0  0
 14 17  2  0  0  0  0
 15 16  2  0  0  0  0
 15 17  1  0  0  0  0
M  END
> <Value>
4.399999967876858

> <Relation>
=

> <SourceURI>
mol:CHEMBL1971519

$$$$

Generated by Molecular Materials Informatics

 25 28  0  0  0  0  0  0  0  0999 V2000
    5.7482   -3.3375    0.0000 O   0  0  0  0  0  0  0  0  0  0  0  0
   -2.0460    4.1625    0.0000 O   0  0  0  0  0  0  0  0  0  0  0  0
    0.5520    5.6625    0.0000 O   0  0  0  0  0  0  0  0  0  0  0  0
   -0.7469   -1.0875    0.0000 N   0  0  0  0  0  0  0  0  0  0  0  0
   -0.7469   -2.5875    0.0000 N   0  0  0  0  0  0  0  0  0  0  0  0
    1.8511   -2.5875    0.0000 C   0  0  0  0  0  0  0  0  0  0  0  0
    1.8511   -1.0875    0.0000 C   0  0  0  0  0  0  0  0  0  0  0  0
    0.5520   -0.3375    0.0000 C   0  0  0  0  0  0  0  0  0  0  0  0
    3.1502   -3.3375    0.0000 C   0  0  0  0  0  0  0  0  0  0  0  0
    0.5520   -3.3375    0.0000 C   0  0  0  0  0  0  0  0  0  0  0  0
    0.5520    1.1625    0.0000 C   0  0  0  0  0  0  0  0  0  0  0  0
    4.4493   -2.5875    0.0000 C   0  0  0  0  0  0  0  0  0  0  0  0
    3.1502   -0.3375    0.0000 C   0  0  0  0  0  0  0  0  0  0  0  0
    3.1502   -4.8375    0.0000 C   0  0  0  0  0  0  0  0  0  0  0  0
    4.4493   -1.0875    0.0000 C   0  0  0  0  0  0  0  0  0  0  0  0
    0.5520   -4.8375    0.0000 C   0  0  0  0  0  0  0  0  0  0  0  0
   -0.7469    1.9125    0.0000 C   0  0  0  0  0  0  0  0  0  0  0  0
    1.8511    1.9125    0.0000 C   0  0  0  0  0  0  0  0  0  0  0  0
   -0.7469    3.4125    0.0000 C   0  0  0  0  0  0  0  0  0  0  0  0
    1.8511   -5.5875    0.0000 C   0  0  0  0  0  0  0  0  0  0  0  0
    0.5520    4.1625    0.0000 C   0  0  0  0  0  0  0  0  0  0  0  0
    1.8511    3.4125    0.0000 C   0  0  0  0  0  0  0  0  0  0  0  0
    7.0473   -2.5875    0.0000 C   0  0  0  0  0  0  0  0  0  0  0  0
   -2.0460    5.6625    0.0000 C   0  0  0  0  0  0  0  0  0  0  0  0
   -0.7469    6.4125    0.0000 C   0  0  0  0  0  0  0  0  0  0  0  0
  1 12  1  0  0  0  0
  1 23  1  0  0  0  0
  2 19  1  0  0  0  0
  2 24  1  0  0  0  0
  3 21  1  0  0  0  0
  3 25  1  0  0  0  0
  4  5  1  0  0  0  0
  4  8  2  0  0  0  0
  5 10  1  0  0  0  0
  6  7  2  0  0  0  0
  6  9  1  0  0  0  0
  6 10  1  0  0  0  0
  7  8  1  0  0  0  0
  7 13  1  0  0  0  0
  8 11  1  0  0  0  0
  9 12  2  0  0  0  0
  9 14  1  0  0  0  0
 10 16  2  0  0  0  0
 11 17  1  0  0  0  0
 11 18  2  0  0  0  0
 12 15  1  0  0  0  0
 13 15  2  0  0  0  0
 14 20  2  0  0  0  0
 16 20  1  0  0  0  0
 17 19  2  0  0  0  0
 18 22  1  0  0  0  0
 19 21  1  0  0  0  0
 21 22  2  0  0  0  0
M  END
> <Value>
6.0999990348465305

> <Relation>
=

> <SourceURI>
mol:CHEMBL1997335

$$$$

Generated by Molecular Materials Informatics

 33 37  0  0  0  0  0  0  0  0999 V2000
   -3.0045    0.4853    0.0000 O   0  0  0  0  0  0  0  0  0  0  0  0
   -7.6361   -7.3945    0.0000 O   0  0  0  0  0  0  0  0  0  0  0  0
  -13.2181   -5.4884    0.0000 O   0  0  0  0  0  0  0  0  0  0  0  0
  -12.2601   -2.9929    0.0000 N   0  0  0  0  0  0  0  0  0  0  0  0
   -3.0045    2.9122    0.0000 N   0  0  0  0  0  0  0  0  0  0  0  0
   -5.3861    1.6987    0.0000 N   0  0  0  0  0  0  0  0  0  0  0  0
   -3.1361   -9.9925    0.0000 N   0  0  0  0  0  0  0  0  0  0  0  0
   -9.8861   -3.4975    0.0000 C   0  0  0  0  0  0  0  0  0  0  0  0
   -8.3861   -3.4975    0.0000 C   0  0  0  0  0  0  0  0  0  0  0  0
  -10.6361   -4.7965    0.0000 C   0  0  0  0  0  0  0  0  0  0  0  0
   -7.6361   -2.1984    0.0000 C   0  0  0  0  0  0  0  0  0  0  0  0
  -12.1034   -4.4845    0.0000 C   0  0  0  0  0  0  0  0  0  0  0  0
   -7.6361   -4.7965    0.0000 C   0  0  0  0  0  0  0  0  0  0  0  0
   -8.3861   -6.0955    0.0000 C   0  0  0  0  0  0  0  0  0  0  0  0
   -9.8861   -6.0955    0.0000 C   0  0  0  0  0  0  0  0  0  0  0  0
  -10.8898   -2.3827    0.0000 C   0  0  0  0  0  0  0  0  0  0  0  0
   -3.8861    1.6987    0.0000 C   0  0  0  0  0  0  0  0  0  0  0  0
   -1.5780    0.9487    0.0000 C   0  0  0  0  0  0  0  0  0  0  0  0
   -1.5780    2.4487    0.0000 C   0  0  0  0  0  0  0  0  0  0  0  0
   -8.3861   -0.8993    0.0000 C   0  0  0  0  0  0  0  0  0  0  0  0
   -6.1361   -2.1984    0.0000 C   0  0  0  0  0  0  0  0  0  0  0  0
   -6.1361    0.3996    0.0000 C   0  0  0  0  0  0  0  0  0  0  0  0
   -7.6361    0.3996    0.0000 C   0  0  0  0  0  0  0  0  0  0  0  0
   -5.3861   -0.8993    0.0000 C   0  0  0  0  0  0  0  0  0  0  0  0
   -0.2789    0.1987    0.0000 C   0  0  0  0  0  0  0  0  0  0  0  0
   -0.2789    3.1987    0.0000 C   0  0  0  0  0  0  0  0  0  0  0  0
    1.0202    0.9487    0.0000 C   0  0  0  0  0  0  0  0  0  0  0  0
    1.0202    2.4487    0.0000 C   0  0  0  0  0  0  0  0  0  0  0  0
   -6.1361   -7.3945    0.0000 C   0  0  0  0  0  0  0  0  0  0  0  0
   -5.3861   -8.6936    0.0000 C   0  0  0  0  0  0  0  0  0  0  0  0
   -3.8861   -8.6936    0.0000 C   0  0  0  0  0  0  0  0  0  0  0  0
   -1.6361   -9.9925    0.0000 C   0  0  0  0  0  0  0  0  0  0  0  0
   -3.8861  -11.2916    0.0000 C   0  0  0  0  0  0  0  0  0  0  0  0
  1 17  1  0  0  0  0
  1 18  1  0  0  0  0
  2 14  1  0  0  0  0
  2 29  1  0  0  0  0
  3 12  2  0  0  0  0
  4 12  1  0  0  0  0
  4 16  1  0  0  0  0
  5 17  2  0  0  0  0
  5 19  1  0  0  0  0
  6 17  1  0  0  0  0
  6 22  1  0  0  0  0
  7 31  1  0  0  0  0
  7 32  1  0  0  0  0
  7 33  1  0  0  0  0
  8  9  1  0  0  0  0
  8 10  2  0  0  0  0
  8 16  1  0  0  0  0
  9 11  1  0  0  0  0
  9 13  2  0  0  0  0
 10 12  1  0  0  0  0
 10 15  1  0  0  0  0
 11 20  2  0  0  0  0
 11 21  1  0  0  0  0
 13 14  1  0  0  0  0
 14 15  2  0  0  0  0
 18 19  1  0  0  0  0
 18 25  2  0  0  0  0
 19 26  2  0  0  0  0
 20 23  1  0  0  0  0
 21 24  2  0  0  0  0
 22 23  2  0  0  0  0
 22 24  1  0  0  0  0
 25 27  1  0  0  0  0
 26 28  1  0  0  0  0
 27 28  2  0  0  0  0
 29 30  1  0  0  0  0
 30 31  1  0  0  0  0
M  END
> <Value>
6.0

> <Relation>
=

> <SourceURI>
mol:CHEMBL1966425

$$$$

Generated by Molecular Materials Informatics

 28 31  0  0  0  0  0  0  0  0999 V2000
    8.4833    9.1833    0.0000 F   0  0  0  0  0  0  0  0  0  0  0  0
    4.5862    3.9333    0.0000 O   0  0  0  0  0  0  0  0  0  0  0  0
   -0.7376   -4.7803    0.0000 N   0  0  0  0  0  0  0  0  0  0  0  0
   -1.6193   -3.5666    0.0000 N   0  0  0  0  0  0  0  0  0  0  0  0
   -1.2011   -0.9266    0.0000 N   0  0  0  0  0  0  0  0  0  0  0  0
    3.2871    6.1833    0.0000 N   0  0  0  0  0  0  0  0  0  0  0  0
    0.6889   -2.8166    0.0000 C   0  0  0  0  0  0  0  0  0  0  0  0
    1.9880   -2.0666    0.0000 C   0  0  0  0  0  0  0  0  0  0  0  0
    0.6889   -4.3166    0.0000 C   0  0  0  0  0  0  0  0  0  0  0  0
   -0.7376   -2.3532    0.0000 C   0  0  0  0  0  0  0  0  0  0  0  0
    1.9880   -0.5666    0.0000 C   0  0  0  0  0  0  0  0  0  0  0  0
    3.2871   -2.8166    0.0000 C   0  0  0  0  0  0  0  0  0  0  0  0
    1.9880   -5.0666    0.0000 C   0  0  0  0  0  0  0  0  0  0  0  0
    3.2871   -4.3166    0.0000 C   0  0  0  0  0  0  0  0  0  0  0  0
    0.6889    0.1834    0.0000 C   0  0  0  0  0  0  0  0  0  0  0  0
    3.2871    0.1834    0.0000 C   0  0  0  0  0  0  0  0  0  0  0  0
    1.9880    2.4334    0.0000 C   0  0  0  0  0  0  0  0  0  0  0  0
    0.6889    1.6834    0.0000 C   0  0  0  0  0  0  0  0  0  0  0  0
    3.2871    1.6834    0.0000 C   0  0  0  0  0  0  0  0  0  0  0  0
    4.5862    6.9333    0.0000 C   0  0  0  0  0  0  0  0  0  0  0  0
    1.9880    3.9333    0.0000 C   0  0  0  0  0  0  0  0  0  0  0  0
    3.2871    4.6833    0.0000 C   0  0  0  0  0  0  0  0  0  0  0  0
    5.8851    9.1833    0.0000 C   0  0  0  0  0  0  0  0  0  0  0  0
    7.1842    8.4333    0.0000 C   0  0  0  0  0  0  0  0  0  0  0  0
    4.5862    8.4333    0.0000 C   0  0  0  0  0  0  0  0  0  0  0  0
    5.8851    6.1833    0.0000 C   0  0  0  0  0  0  0  0  0  0  0  0
    7.1842    6.9333    0.0000 C   0  0  0  0  0  0  0  0  0  0  0  0
    5.8851   10.6833    0.0000 C   0  0  0  0  0  0  0  0  0  0  0  0
  1 24  1  0  0  0  0
  2 22  2  0  0  0  0
  3  4  1  0  0  0  0
  3  9  1  0  0  0  0
  4 10  2  0  0  0  0
  5 10  1  0  0  0  0
  6 20  1  0  0  0  0
  6 22  1  0  0  0  0
  7  8  1  0  0  0  0
  7  9  2  0  0  0  0
  7 10  1  0  0  0  0
  8 11  1  0  0  0  0
  8 12  2  0  0  0  0
  9 13  1  0  0  0  0
 11 15  2  0  0  0  0
 11 16  1  0  0  0  0
 12 14  1  0  0  0  0
 13 14  2  0  0  0  0
 15 18  1  0  0  0  0
 16 19  2  0  0  0  0
 17 18  2  0  0  0  0
 17 19  1  0  0  0  0
 17 21  1  0  0  0  0
 20 25  1  0  0  0  0
 20 26  2  0  0  0  0
 21 22  1  0  0  0  0
 23 24  1  0  0  0  0
 23 25  2  0  0  0  0
 23 28  1  0  0  0  0
 24 27  2  0  0  0  0
 26 27  1  0  0  0  0
M  END
> <Value>
5.899998417198648

> <Relation>
<

> <SourceURI>
mol:CHEMBL1984363

$$$$

Generated by Molecular Materials Informatics

 32 34  0  0  0  0  0  0  0  0999 V2000
  -12.2432    0.5173    0.0000 S   0  0  0  0  0  0  0  0  0  0  0  0
   -1.8511    3.5173    0.0000 F   0  0  0  0  0  0  0  0  0  0  0  0
  -13.5422   -0.2326    0.0000 O   0  0  0  0  0  0  0  0  0  0  0  0
  -11.4932   -0.7817    0.0000 O   0  0  0  0  0  0  0  0  0  0  0  0
    3.3449    3.5173    0.0000 O   0  0  0  0  0  0  0  0  0  0  0  0
    5.9428    5.0172    0.0000 O   0  0  0  0  0  0  0  0  0  0  0  0
   -7.0471    0.5173    0.0000 N   0  0  0  0  0  0  0  0  0  0  0  0
   -4.4492    0.5173    0.0000 N   0  0  0  0  0  0  0  0  0  0  0  0
   -5.7481    2.7673    0.0000 N   0  0  0  0  0  0  0  0  0  0  0  0
   -1.8511    0.5173    0.0000 N   0  0  0  0  0  0  0  0  0  0  0  0
  -12.9931    1.8164    0.0000 N   0  0  0  0  0  0  0  0  0  0  0  0
    7.2419    2.7673    0.0000 N   0  0  0  0  0  0  0  0  0  0  0  0
  -10.9441    1.2673    0.0000 C   0  0  0  0  0  0  0  0  0  0  0  0
   -8.3462    1.2673    0.0000 C   0  0  0  0  0  0  0  0  0  0  0  0
  -10.9441    2.7673    0.0000 C   0  0  0  0  0  0  0  0  0  0  0  0
   -9.6451    0.5173    0.0000 C   0  0  0  0  0  0  0  0  0  0  0  0
   -5.7481    1.2673    0.0000 C   0  0  0  0  0  0  0  0  0  0  0  0
   -3.1502    1.2673    0.0000 C   0  0  0  0  0  0  0  0  0  0  0  0
   -3.1502    2.7673    0.0000 C   0  0  0  0  0  0  0  0  0  0  0  0
   -8.3462    2.7673    0.0000 C   0  0  0  0  0  0  0  0  0  0  0  0
   -9.6451    3.5173    0.0000 C   0  0  0  0  0  0  0  0  0  0  0  0
   -0.5521    1.2673    0.0000 C   0  0  0  0  0  0  0  0  0  0  0  0
   -4.4492    3.5173    0.0000 C   0  0  0  0  0  0  0  0  0  0  0  0
  -12.2432    3.5173    0.0000 C   0  0  0  0  0  0  0  0  0  0  0  0
   -0.5521    2.7673    0.0000 C   0  0  0  0  0  0  0  0  0  0  0  0
    0.7468    0.5173    0.0000 C   0  0  0  0  0  0  0  0  0  0  0  0
    2.0458    2.7673    0.0000 C   0  0  0  0  0  0  0  0  0  0  0  0
    0.7468    3.5173    0.0000 C   0  0  0  0  0  0  0  0  0  0  0  0
    2.0458    1.2673    0.0000 C   0  0  0  0  0  0  0  0  0  0  0  0
    4.6438    2.7673    0.0000 C   0  0  0  0  0  0  0  0  0  0  0  0
    5.9428    3.5173    0.0000 C   0  0  0  0  0  0  0  0  0  0  0  0
    8.5409    3.5173    0.0000 C   0  0  0  0  0  0  0  0  0  0  0  0
  1  3  2  0  0  0  0
  1  4  2  0  0  0  0
  1 11  1  0  0  0  0
  1 13  1  0  0  0  0
  2 19  1  0  0  0  0
  5 27  1  0  0  0  0
  5 30  1  0  0  0  0
  6 31  2  0  0  0  0
  7 14  1  0  0  0  0
  7 17  1  0  0  0  0
  8 17  1  0  0  0  0
  8 18  2  0  0  0  0
  9 17  2  0  0  0  0
  9 23  1  0  0  0  0
 10 18  1  0  0  0  0
 10 22  1  0  0  0  0
 12 31  1  0  0  0  0
 12 32  1  0  0  0  0
 13 15  1  0  0  0  0
 13 16  2  0  0  0  0
 14 16  1  0  0  0  0
 14 20  2  0  0  0  0
 15 21  2  0  0  0  0
 15 24  1  0  0  0  0
 18 19  1  0  0  0  0
 19 23  2  0  0  0  0
 20 21  1  0  0  0  0
 22 25  2  0  0  0  0
 22 26  1  0  0  0  0
 25 28  1  0  0  0  0
 26 29  2  0  0  0  0
 27 28  2  0  0  0  0
 27 29  1  0  0  0  0
 30 31  1  0  0  0  0
M  END
> <Value>
6.699991797446187

> <Relation>
=

> <SourceURI>
mol:CHEMBL1978099

$$$$

Generated by Molecular Materials Informatics

 31 34  0  0  0  0  0  0  0  0999 V2000
   -1.0565   -0.1815    0.0000 O   0  0  0  0  0  0  0  0  0  0  0  0
   -1.0565    2.4165    0.0000 O   0  0  0  0  0  0  0  0  0  0  0  0
   -2.2498   -4.9995    0.0000 O   0  0  0  0  0  0  0  0  0  0  0  0
    3.5017    1.8676    0.0000 N   0  0  0  0  0  0  0  0  0  0  0  0
    4.8007    2.6176    0.0000 N   0  0  0  0  0  0  0  0  0  0  0  0
    6.0998    0.3676    0.0000 N   0  0  0  0  0  0  0  0  0  0  0  0
    4.8007   -1.8824    0.0000 N   0  0  0  0  0  0  0  0  0  0  0  0
    0.2211   -5.8024    0.0000 N   0  0  0  0  0  0  0  0  0  0  0  0
   -1.7096   -7.5408    0.0000 N   0  0  0  0  0  0  0  0  0  0  0  0
    2.0751   -0.0961    0.0000 C   0  0  0  0  0  0  0  0  0  0  0  0
    3.5017    0.3676    0.0000 C   0  0  0  0  0  0  0  0  0  0  0  0
    1.1935    1.1176    0.0000 C   0  0  0  0  0  0  0  0  0  0  0  0
    2.0751    2.3310    0.0000 C   0  0  0  0  0  0  0  0  0  0  0  0
    1.6117   -1.5226    0.0000 C   0  0  0  0  0  0  0  0  0  0  0  0
    4.8007   -0.3824    0.0000 C   0  0  0  0  0  0  0  0  0  0  0  0
   -0.3065    1.1176    0.0000 C   0  0  0  0  0  0  0  0  0  0  0  0
    2.6153   -2.6373    0.0000 C   0  0  0  0  0  0  0  0  0  0  0  0
    0.1444   -1.8344    0.0000 C   0  0  0  0  0  0  0  0  0  0  0  0
    6.0998    1.8676    0.0000 C   0  0  0  0  0  0  0  0  0  0  0  0
    1.6117    3.7576    0.0000 C   0  0  0  0  0  0  0  0  0  0  0  0
    0.6846   -4.3757    0.0000 C   0  0  0  0  0  0  0  0  0  0  0  0
    2.1518   -4.0639    0.0000 C   0  0  0  0  0  0  0  0  0  0  0  0
   -0.3191   -3.2612    0.0000 C   0  0  0  0  0  0  0  0  0  0  0  0
   -2.5565   -0.1815    0.0000 C   0  0  0  0  0  0  0  0  0  0  0  0
   -1.2462   -6.1143    0.0000 C   0  0  0  0  0  0  0  0  0  0  0  0
   -3.1769   -7.8526    0.0000 C   0  0  0  0  0  0  0  0  0  0  0  0
   -3.6405   -9.2793    0.0000 C   0  0  0  0  0  0  0  0  0  0  0  0
   -4.1807   -6.7379    0.0000 C   0  0  0  0  0  0  0  0  0  0  0  0
   -5.1076   -9.5912    0.0000 C   0  0  0  0  0  0  0  0  0  0  0  0
   -5.6478   -7.0499    0.0000 C   0  0  0  0  0  0  0  0  0  0  0  0
   -6.1114   -8.4764    0.0000 C   0  0  0  0  0  0  0  0  0  0  0  0
  1 16  1  0  0  0  0
  1 24  1  0  0  0  0
  2 16  2  0  0  0  0
  3 25  2  0  0  0  0
  4  5  1  0  0  0  0
  4 11  1  0  0  0  0
  4 13  1  0  0  0  0
  5 19  2  0  0  0  0
  6 15  2  0  0  0  0
  6 19  1  0  0  0  0
  7 15  1  0  0  0  0
  8 21  1  0  0  0  0
  8 25  1  0  0  0  0
  9 25  1  0  0  0  0
  9 26  1  0  0  0  0
 10 11  2  0  0  0  0
 10 12  1  0  0  0  0
 10 14  1  0  0  0  0
 11 15  1  0  0  0  0
 12 13  2  0  0  0  0
 12 16  1  0  0  0  0
 13 20  1  0  0  0  0
 14 17  2  0  0  0  0
 14 18  1  0  0  0  0
 17 22  1  0  0  0  0
 18 23  2  0  0  0  0
 21 22  2  0  0  0  0
 21 23  1  0  0  0  0
 26 27  2  0  0  0  0
 26 28  1  0  0  0  0
 27 29  1  0  0  0  0
 28 30  2  0  0  0  0
 29 31  2  0  0  0  0
 30 31  1  0  0  0  0
M  END
> <Value>
6.199998172182031

> <Relation>
=

> <SourceURI>
mol:CHEMBL1977041

$$$$

Generated by Molecular Materials Informatics

 20 22  0  0  0  0  0  0  0  0999 V2000
    6.1462    1.3868    0.0000 Cl  0  0  0  0  0  0  0  0  0  0  0  0
    1.8954    4.0472    0.0000 O   0  0  0  0  0  0  0  0  0  0  0  0
   -0.1893   -2.8643    0.0000 O   0  0  0  0  0  0  0  0  0  0  0  0
    0.4947   -0.5903    0.0000 N   0  0  0  0  0  0  0  0  0  0  0  0
   -0.2553    2.6957    0.0000 N   0  0  0  0  0  0  0  0  0  0  0  0
    2.9456   -0.9598    0.0000 N   0  0  0  0  0  0  0  0  0  0  0  0
    4.3791   -0.5176    0.0000 N   0  0  0  0  0  0  0  0  0  0  0  0
   -2.7222   -3.4425    0.0000 N   0  0  0  0  0  0  0  0  0  0  0  0
   -0.8568    0.0604    0.0000 C   0  0  0  0  0  0  0  0  0  0  0  0
    2.1800    1.5228    0.0000 C   0  0  0  0  0  0  0  0  0  0  0  0
    1.8462    0.0604    0.0000 C   0  0  0  0  0  0  0  0  0  0  0  0
   -1.1906    1.5228    0.0000 C   0  0  0  0  0  0  0  0  0  0  0  0
    1.2447    2.6957    0.0000 C   0  0  0  0  0  0  0  0  0  0  0  0
   -1.9564   -0.9598    0.0000 C   0  0  0  0  0  0  0  0  0  0  0  0
    3.6133    1.9650    0.0000 C   0  0  0  0  0  0  0  0  0  0  0  0
    4.7129    0.9448    0.0000 C   0  0  0  0  0  0  0  0  0  0  0  0
   -2.6241    1.9650    0.0000 C   0  0  0  0  0  0  0  0  0  0  0  0
   -3.3897   -0.5176    0.0000 C   0  0  0  0  0  0  0  0  0  0  0  0
   -1.6226   -2.4221    0.0000 C   0  0  0  0  0  0  0  0  0  0  0  0
   -3.7235    0.9448    0.0000 C   0  0  0  0  0  0  0  0  0  0  0  0
  1 16  1  0  0  0  0
  2 13  2  0  0  0  0
  3 19  2  0  0  0  0
  4  9  1  0  0  0  0
  4 11  1  0  0  0  0
  5 12  1  0  0  0  0
  5 13  1  0  0  0  0
  6  7  1  0  0  0  0
  6 11  2  0  0  0  0
  7 16  2  0  0  0  0
  8 19  1  0  0  0  0
  9 12  2  0  0  0  0
  9 14  1  0  0  0  0
 10 11  1  0  0  0  0
 10 13  1  0  0  0  0
 10 15  2  0  0  0  0
 12 17  1  0  0  0  0
 14 18  2  0  0  0  0
 14 19  1  0  0  0  0
 15 16  1  0  0  0  0
 17 20  2  0  0  0  0
 18 20  1  0  0  0  0
M  END
> <Value>
6.0

> <Relation>
=

> <SourceURI>
mol:CHEMBL1968070

$$$$

Generated by Molecular Materials Informatics

 28 31  0  0  0  0  0  0  0  0999 V2000
   -0.6435   -1.3769    0.0000 O   0  0  0  0  0  0  0  0  0  0  0  0
    1.9170   -3.9377    0.0000 O   0  0  0  0  0  0  0  0  0  0  0  0
   11.9777    1.2211    0.0000 O   0  0  0  0  0  0  0  0  0  0  0  0
    1.9170    1.1836    0.0000 N   0  0  0  0  0  0  0  0  0  0  0  0
    4.4778   -1.3769    0.0000 N   0  0  0  0  0  0  0  0  0  0  0  0
   -3.4066    3.8972    0.0000 N   0  0  0  0  0  0  0  0  0  0  0  0
   -4.2882    2.6836    0.0000 N   0  0  0  0  0  0  0  0  0  0  0  0
    9.7277   -0.0778    0.0000 N   0  0  0  0  0  0  0  0  0  0  0  0
    1.9170   -0.3164    0.0000 C   0  0  0  0  0  0  0  0  0  0  0  0
    2.9778   -1.3769    0.0000 C   0  0  0  0  0  0  0  0  0  0  0  0
    0.8565   -1.3769    0.0000 C   0  0  0  0  0  0  0  0  0  0  0  0
    1.9170   -2.4377    0.0000 C   0  0  0  0  0  0  0  0  0  0  0  0
    0.6181    1.9336    0.0000 C   0  0  0  0  0  0  0  0  0  0  0  0
   -1.9801    1.9336    0.0000 C   0  0  0  0  0  0  0  0  0  0  0  0
   -1.9801    3.4336    0.0000 C   0  0  0  0  0  0  0  0  0  0  0  0
   -0.6810    1.1836    0.0000 C   0  0  0  0  0  0  0  0  0  0  0  0
    0.6181    3.4336    0.0000 C   0  0  0  0  0  0  0  0  0  0  0  0
    5.2277   -2.6760    0.0000 C   0  0  0  0  0  0  0  0  0  0  0  0
   -0.6810    4.1836    0.0000 C   0  0  0  0  0  0  0  0  0  0  0  0
   -3.4066    1.4702    0.0000 C   0  0  0  0  0  0  0  0  0  0  0  0
    6.7277   -2.6760    0.0000 C   0  0  0  0  0  0  0  0  0  0  0  0
    7.4777   -1.3769    0.0000 C   0  0  0  0  0  0  0  0  0  0  0  0
    8.9777   -1.3769    0.0000 C   0  0  0  0  0  0  0  0  0  0  0  0
    7.4777   -3.9751    0.0000 C   0  0  0  0  0  0  0  0  0  0  0  0
    9.7277   -2.6760    0.0000 C   0  0  0  0  0  0  0  0  0  0  0  0
    8.9777   -3.9751    0.0000 C   0  0  0  0  0  0  0  0  0  0  0  0
   11.2277   -0.0778    0.0000 C   0  0  0  0  0  0  0  0  0  0  0  0
   11.9777   -1.3769    0.0000 C   0  0  0  0  0  0  0  0  0  0  0  0
  1 11  2  0  0  0  0
  2 12  2  0  0  0  0
  3 27  2  0  0  0  0
  4  9  1  0  0  0  0
  4 13  1  0  0  0  0
  5 10  1  0  0  0  0
  5 18  1  0  0  0  0
  6  7  1  0  0  0  0
  6 15  1  0  0  0  0
  7 20  2  0  0  0  0
  8 23  1  0  0  0  0
  8 27  1  0  0  0  0
  9 10  2  0  0  0  0
  9 11  1  0  0  0  0
 10 12  1  0  0  0  0
 11 12  1  0  0  0  0
 13 16  1  0  0  0  0
 13 17  2  0  0  0  0
 14 15  1  0  0  0  0
 14 16  2  0  0  0  0
 14 20  1  0  0  0  0
 15 19  2  0  0  0  0
 17 19  1  0  0  0  0
 18 21  1  0  0  0  0
 21 22  2  0  0  0  0
 21 24  1  0  0  0  0
 22 23  1  0  0  0  0
 23 25  2  0  0  0  0
 24 26  2  0  0  0  0
 25 26  1  0  0  0  0
 27 28  1  0  0  0  0
M  END
> <Value>
5.899998417198648

> <Relation>
=

> <SourceURI>
mol:CHEMBL1988608

$$$$

Generated by Molecular Materials Informatics

 26 28  0  0  0  0  0  0  0  0999 V2000
   -6.5005    8.9252    0.0000 F   0  0  0  0  0  0  0  0  0  0  0  0
   -8.0005    7.4252    0.0000 F   0  0  0  0  0  0  0  0  0  0  0  0
   -5.0005    7.4252    0.0000 F   0  0  0  0  0  0  0  0  0  0  0  0
   -3.9025    1.4252    0.0000 O   0  0  0  0  0  0  0  0  0  0  0  0
    2.5928   -7.4460    0.0000 O   0  0  0  0  0  0  0  0  0  0  0  0
   -0.0054   -7.4460    0.0000 O   0  0  0  0  0  0  0  0  0  0  0  0
    1.2937   -3.0748    0.0000 N   0  0  0  0  0  0  0  0  0  0  0  0
    1.2937   -5.1960    0.0000 C   0  0  0  0  0  0  0  0  0  0  0  0
   -6.5005    5.9252    0.0000 C   0  0  0  0  0  0  0  0  0  0  0  0
   -6.5005    7.4252    0.0000 C   0  0  0  0  0  0  0  0  0  0  0  0
    2.3544   -4.1355    0.0000 C   0  0  0  0  0  0  0  0  0  0  0  0
    0.2330   -4.1355    0.0000 C   0  0  0  0  0  0  0  0  0  0  0  0
    1.2937   -1.5748    0.0000 C   0  0  0  0  0  0  0  0  0  0  0  0
   -0.0054   -0.8248    0.0000 C   0  0  0  0  0  0  0  0  0  0  0  0
   -5.2016    3.6752    0.0000 C   0  0  0  0  0  0  0  0  0  0  0  0
   -5.2016    5.1752    0.0000 C   0  0  0  0  0  0  0  0  0  0  0  0
    1.2937   -6.6960    0.0000 C   0  0  0  0  0  0  0  0  0  0  0  0
   -7.7996    5.1752    0.0000 C   0  0  0  0  0  0  0  0  0  0  0  0
   -2.6034    0.6752    0.0000 C   0  0  0  0  0  0  0  0  0  0  0  0
   -6.5005    2.9252    0.0000 C   0  0  0  0  0  0  0  0  0  0  0  0
   -1.3043   -1.5748    0.0000 C   0  0  0  0  0  0  0  0  0  0  0  0
   -0.0054    0.6752    0.0000 C   0  0  0  0  0  0  0  0  0  0  0  0
   -3.9025    2.9252    0.0000 C   0  0  0  0  0  0  0  0  0  0  0  0
   -7.7996    3.6752    0.0000 C   0  0  0  0  0  0  0  0  0  0  0  0
   -2.6034   -0.8248    0.0000 C   0  0  0  0  0  0  0  0  0  0  0  0
   -1.3043    1.4252    0.0000 C   0  0  0  0  0  0  0  0  0  0  0  0
  1 10  1  0  0  0  0
  2 10  1  0  0  0  0
  3 10  1  0  0  0  0
  4 19  1  0  0  0  0
  4 23  1  0  0  0  0
  5 17  2  0  0  0  0
  6 17  1  0  0  0  0
  7 11  1  0  0  0  0
  7 12  1  0  0  0  0
  7 13  1  0  0  0  0
  8 11  1  0  0  0  0
  8 12  1  0  0  0  0
  8 17  1  0  0  0  0
  9 10  1  0  0  0  0
  9 16  2  0  0  0  0
  9 18  1  0  0  0  0
 13 14  1  0  0  0  0
 14 21  2  0  0  0  0
 14 22  1  0  0  0  0
 15 16  1  0  0  0  0
 15 20  2  0  0  0  0
 15 23  1  0  0  0  0
 18 24  2  0  0  0  0
 19 25  2  0  0  0  0
 19 26  1  0  0  0  0
 20 24  1  0  0  0  0
 21 25  1  0  0  0  0
 22 26  2  0  0  0  0
M  END
> <Value>
5.300000202445418

> <Relation>
<

> <SourceURI>
mol:CHEMBL1971132

$$$$

Generated by Molecular Materials Informatics

 27 30  0  0  0  0  0  0  0  0999 V2000
   -0.0893   -0.2833    0.0000 S   0  0  0  0  0  0  0  0  0  0  0  0
    3.0423    2.2293    0.0000 O   0  0  0  0  0  0  0  0  0  0  0  0
   -2.9424   -0.2833    0.0000 N   0  0  0  0  0  0  0  0  0  0  0  0
   -3.8241    0.9302    0.0000 N   0  0  0  0  0  0  0  0  0  0  0  0
    3.0423   -0.3689    0.0000 N   0  0  0  0  0  0  0  0  0  0  0  0
    7.5423   -5.5651    0.0000 N   0  0  0  0  0  0  0  0  0  0  0  0
   -1.5159    1.6802    0.0000 C   0  0  0  0  0  0  0  0  0  0  0  0
   -1.5159    0.1802    0.0000 C   0  0  0  0  0  0  0  0  0  0  0  0
   -2.9424    2.1437    0.0000 C   0  0  0  0  0  0  0  0  0  0  0  0
    0.7923    0.9302    0.0000 C   0  0  0  0  0  0  0  0  0  0  0  0
   -0.0893    2.1437    0.0000 C   0  0  0  0  0  0  0  0  0  0  0  0
   -3.4061    3.5704    0.0000 C   0  0  0  0  0  0  0  0  0  0  0  0
    2.2923    0.9302    0.0000 C   0  0  0  0  0  0  0  0  0  0  0  0
   -4.8732    3.8822    0.0000 C   0  0  0  0  0  0  0  0  0  0  0  0
   -2.4022    4.6851    0.0000 C   0  0  0  0  0  0  0  0  0  0  0  0
    4.5423   -0.3689    0.0000 C   0  0  0  0  0  0  0  0  0  0  0  0
    5.2923   -1.6678    0.0000 C   0  0  0  0  0  0  0  0  0  0  0  0
   -5.3368    5.3087    0.0000 C   0  0  0  0  0  0  0  0  0  0  0  0
   -2.8659    6.1117    0.0000 C   0  0  0  0  0  0  0  0  0  0  0  0
   -4.3330    6.4235    0.0000 C   0  0  0  0  0  0  0  0  0  0  0  0
    6.7923   -4.2660    0.0000 C   0  0  0  0  0  0  0  0  0  0  0  0
    6.7923   -1.6678    0.0000 C   0  0  0  0  0  0  0  0  0  0  0  0
    4.5423   -2.9669    0.0000 C   0  0  0  0  0  0  0  0  0  0  0  0
    7.5423   -2.9669    0.0000 C   0  0  0  0  0  0  0  0  0  0  0  0
    5.2923   -4.2660    0.0000 C   0  0  0  0  0  0  0  0  0  0  0  0
    9.0423   -5.5651    0.0000 C   0  0  0  0  0  0  0  0  0  0  0  0
    6.7923   -6.8640    0.0000 C   0  0  0  0  0  0  0  0  0  0  0  0
  1  8  1  0  0  0  0
  1 10  1  0  0  0  0
  2 13  2  0  0  0  0
  3  4  1  0  0  0  0
  3  8  1  0  0  0  0
  4  9  2  0  0  0  0
  5 13  1  0  0  0  0
  5 16  1  0  0  0  0
  6 21  1  0  0  0  0
  6 26  1  0  0  0  0
  6 27  1  0  0  0  0
  7  8  2  0  0  0  0
  7  9  1  0  0  0  0
  7 11  1  0  0  0  0
  9 12  1  0  0  0  0
 10 11  2  0  0  0  0
 10 13  1  0  0  0  0
 12 14  2  0  0  0  0
 12 15  1  0  0  0  0
 14 18  1  0  0  0  0
 15 19  2  0  0  0  0
 16 17  1  0  0  0  0
 17 22  2  0  0  0  0
 17 23  1  0  0  0  0
 18 20  2  0  0  0  0
 19 20  1  0  0  0  0
 21 24  2  0  0  0  0
 21 25  1  0  0  0  0
 22 24  1  0  0  0  0
 23 25  2  0  0  0  0
M  END
> <Value>
5.899998417198648

> <Relation>
<

> <SourceURI>
mol:CHEMBL1984367

$$$$

Generated by Molecular Materials Informatics

 23 25  0  0  0  0  0  0  0  0999 V2000
   -4.6828    2.8801    0.0000 Cl  0  0  0  0  0  0  0  0  0  0  0  0
   -0.8213   -3.0238    0.0000 N   0  0  0  0  0  0  0  0  0  0  0  0
    1.9044   -3.3104    0.0000 N   0  0  0  0  0  0  0  0  0  0  0  0
   -2.2119    3.6831    0.0000 N   0  0  0  0  0  0  0  0  0  0  0  0
    0.2591    4.4860    0.0000 N   0  0  0  0  0  0  0  0  0  0  0  0
    1.3395    9.5687    0.0000 N   0  0  0  0  0  0  0  0  0  0  0  0
   -0.8213   -0.5968    0.0000 C   0  0  0  0  0  0  0  0  0  0  0  0
    0.6053   -1.0603    0.0000 C   0  0  0  0  0  0  0  0  0  0  0  0
   -1.2849    0.8299    0.0000 C   0  0  0  0  0  0  0  0  0  0  0  0
    0.6053   -2.5603    0.0000 C   0  0  0  0  0  0  0  0  0  0  0  0
   -1.7030   -1.8103    0.0000 C   0  0  0  0  0  0  0  0  0  0  0  0
   -0.2811    1.9447    0.0000 C   0  0  0  0  0  0  0  0  0  0  0  0
   -0.7448    3.3712    0.0000 C   0  0  0  0  0  0  0  0  0  0  0  0
   -2.7521    1.1417    0.0000 C   0  0  0  0  0  0  0  0  0  0  0  0
    1.9044   -0.3103    0.0000 C   0  0  0  0  0  0  0  0  0  0  0  0
   -3.2157    2.5683    0.0000 C   0  0  0  0  0  0  0  0  0  0  0  0
    3.2033   -1.0603    0.0000 C   0  0  0  0  0  0  0  0  0  0  0  0
    3.2033   -2.5603    0.0000 C   0  0  0  0  0  0  0  0  0  0  0  0
    0.7993    7.0273    0.0000 C   0  0  0  0  0  0  0  0  0  0  0  0
   -0.2046    5.9126    0.0000 C   0  0  0  0  0  0  0  0  0  0  0  0
    1.8029    8.1421    0.0000 C   0  0  0  0  0  0  0  0  0  0  0  0
   -0.3155    8.0310    0.0000 C   0  0  0  0  0  0  0  0  0  0  0  0
    1.9140    6.0237    0.0000 C   0  0  0  0  0  0  0  0  0  0  0  0
  1 16  1  0  0  0  0
  2 10  1  0  0  0  0
  2 11  1  0  0  0  0
  3 10  2  0  0  0  0
  3 18  1  0  0  0  0
  4 13  1  0  0  0  0
  4 16  2  0  0  0  0
  5 13  1  0  0  0  0
  5 20  1  0  0  0  0
  6 21  1  0  0  0  0
  7  8  1  0  0  0  0
  7  9  1  0  0  0  0
  7 11  2  0  0  0  0
  8 10  1  0  0  0  0
  8 15  2  0  0  0  0
  9 12  1  0  0  0  0
  9 14  2  0  0  0  0
 12 13  2  0  0  0  0
 14 16  1  0  0  0  0
 15 17  1  0  0  0  0
 17 18  2  0  0  0  0
 19 20  1  0  0  0  0
 19 21  1  0  0  0  0
 19 22  1  0  0  0  0
 19 23  1  0  0  0  0
M  END
> <Value>
7.79997073344623

> <Relation>
=

> <SourceURI>
mol:CHEMBL1985723

$$$$

Generated by Molecular Materials Informatics

 31 34  0  0  0  0  0  0  0  0999 V2000
   16.5372   -0.2208    0.0000 F   0  0  0  0  0  0  0  0  0  0  0  0
   15.9883    1.8282    0.0000 F   0  0  0  0  0  0  0  0  0  0  0  0
   14.4883   -0.7698    0.0000 F   0  0  0  0  0  0  0  0  0  0  0  0
    6.1450    1.2792    0.0000 O   0  0  0  0  0  0  0  0  0  0  0  0
    0.9488    2.7791    0.0000 N   0  0  0  0  0  0  0  0  0  0  0  0
   -3.0759    3.2428    0.0000 N   0  0  0  0  0  0  0  0  0  0  0  0
   -3.9575    2.0292    0.0000 N   0  0  0  0  0  0  0  0  0  0  0  0
    3.5468   -1.7208    0.0000 N   0  0  0  0  0  0  0  0  0  0  0  0
    8.7430    2.7791    0.0000 N   0  0  0  0  0  0  0  0  0  0  0  0
   -1.6493    1.2792    0.0000 C   0  0  0  0  0  0  0  0  0  0  0  0
   -1.6493    2.7791    0.0000 C   0  0  0  0  0  0  0  0  0  0  0  0
    0.9488    1.2792    0.0000 C   0  0  0  0  0  0  0  0  0  0  0  0
   -3.0759    0.8157    0.0000 C   0  0  0  0  0  0  0  0  0  0  0  0
   -0.3502    0.5292    0.0000 C   0  0  0  0  0  0  0  0  0  0  0  0
    2.2479    0.5292    0.0000 C   0  0  0  0  0  0  0  0  0  0  0  0
   -0.3502    3.5291    0.0000 C   0  0  0  0  0  0  0  0  0  0  0  0
    3.5468    1.2792    0.0000 C   0  0  0  0  0  0  0  0  0  0  0  0
    4.8459    0.5292    0.0000 C   0  0  0  0  0  0  0  0  0  0  0  0
    2.2479   -0.9708    0.0000 C   0  0  0  0  0  0  0  0  0  0  0  0
   13.9392    1.2792    0.0000 C   0  0  0  0  0  0  0  0  0  0  0  0
   15.2383    0.5292    0.0000 C   0  0  0  0  0  0  0  0  0  0  0  0
   11.3412    1.2792    0.0000 C   0  0  0  0  0  0  0  0  0  0  0  0
   -3.5393   -0.6108    0.0000 C   0  0  0  0  0  0  0  0  0  0  0  0
   12.6401    0.5292    0.0000 C   0  0  0  0  0  0  0  0  0  0  0  0
    4.8459   -0.9708    0.0000 C   0  0  0  0  0  0  0  0  0  0  0  0
   13.9392    2.7791    0.0000 C   0  0  0  0  0  0  0  0  0  0  0  0
   10.0421    0.5292    0.0000 C   0  0  0  0  0  0  0  0  0  0  0  0
   11.3412    2.7791    0.0000 C   0  0  0  0  0  0  0  0  0  0  0  0
    8.7430    1.2792    0.0000 C   0  0  0  0  0  0  0  0  0  0  0  0
    7.4439    0.5292    0.0000 C   0  0  0  0  0  0  0  0  0  0  0  0
   12.6401    3.5291    0.0000 C   0  0  0  0  0  0  0  0  0  0  0  0
  1 21  1  0  0  0  0
  2 21  1  0  0  0  0
  3 21  1  0  0  0  0
  4 18  1  0  0  0  0
  4 30  1  0  0  0  0
  5 12  2  0  0  0  0
  5 16  1  0  0  0  0
  6  7  1  0  0  0  0
  6 11  1  0  0  0  0
  7 13  2  0  0  0  0
  8 19  1  0  0  0  0
  8 25  2  0  0  0  0
  9 29  1  0  0  0  0
 10 11  1  0  0  0  0
 10 13  1  0  0  0  0
 10 14  2  0  0  0  0
 11 16  2  0  0  0  0
 12 14  1  0  0  0  0
 12 15  1  0  0  0  0
 13 23  1  0  0  0  0
 15 17  1  0  0  0  0
 15 19  2  0  0  0  0
 17 18  2  0  0  0  0
 18 25  1  0  0  0  0
 20 21  1  0  0  0  0
 20 24  2  0  0  0  0
 20 26  1  0  0  0  0
 22 24  1  0  0  0  0
 22 27  1  0  0  0  0
 22 28  2  0  0  0  0
 26 31  2  0  0  0  0
 27 29  1  0  0  0  0
 28 31  1  0  0  0  0
 29 30  1  0  0  0  0
M  END
> <Value>
8.400116927926312

> <Relation>
=

> <SourceURI>
mol:CHEMBL1998159

$$$$

Generated by Molecular Materials Informatics

 31 34  0  0  0  0  0  0  0  0999 V2000
   -5.6198   -0.1369    0.0000 F   0  0  0  0  0  0  0  0  0  0  0  0
   -7.5415   -3.2216    0.0000 O   0  0  0  0  0  0  0  0  0  0  0  0
    2.6884   -0.8869    0.0000 N   0  0  0  0  0  0  0  0  0  0  0  0
    1.2618    1.0765    0.0000 N   0  0  0  0  0  0  0  0  0  0  0  0
   -0.6689   -3.0889    0.0000 N   0  0  0  0  0  0  0  0  0  0  0  0
    5.2865    0.6131    0.0000 N   0  0  0  0  0  0  0  0  0  0  0  0
   -0.1287   -5.6302    0.0000 N   0  0  0  0  0  0  0  0  0  0  0  0
   -2.5996   -4.8275    0.0000 N   0  0  0  0  0  0  0  0  0  0  0  0
    1.2618   -1.3505    0.0000 C   0  0  0  0  0  0  0  0  0  0  0  0
    0.3802   -0.1369    0.0000 C   0  0  0  0  0  0  0  0  0  0  0  0
    2.6884    0.6131    0.0000 C   0  0  0  0  0  0  0  0  0  0  0  0
    0.7984   -2.7771    0.0000 C   0  0  0  0  0  0  0  0  0  0  0  0
   -1.1198   -0.1369    0.0000 C   0  0  0  0  0  0  0  0  0  0  0  0
    3.9874    1.3631    0.0000 C   0  0  0  0  0  0  0  0  0  0  0  0
    3.9874   -1.6369    0.0000 C   0  0  0  0  0  0  0  0  0  0  0  0
    1.8020   -3.8918    0.0000 C   0  0  0  0  0  0  0  0  0  0  0  0
    5.2865   -0.8869    0.0000 C   0  0  0  0  0  0  0  0  0  0  0  0
   -1.8698   -1.4360    0.0000 C   0  0  0  0  0  0  0  0  0  0  0  0
   -1.8698    1.1620    0.0000 C   0  0  0  0  0  0  0  0  0  0  0  0
   -1.1326   -4.5156    0.0000 C   0  0  0  0  0  0  0  0  0  0  0  0
    1.3384   -5.3184    0.0000 C   0  0  0  0  0  0  0  0  0  0  0  0
    3.9874    2.8631    0.0000 C   0  0  0  0  0  0  0  0  0  0  0  0
   -3.3698   -1.4360    0.0000 C   0  0  0  0  0  0  0  0  0  0  0  0
   -3.3698    1.1620    0.0000 C   0  0  0  0  0  0  0  0  0  0  0  0
   -4.1198   -0.1369    0.0000 C   0  0  0  0  0  0  0  0  0  0  0  0
   -3.6035   -3.7127    0.0000 C   0  0  0  0  0  0  0  0  0  0  0  0
   -5.0706   -4.0246    0.0000 C   0  0  0  0  0  0  0  0  0  0  0  0
   -6.5378   -4.3364    0.0000 C   0  0  0  0  0  0  0  0  0  0  0  0
   -5.3826   -2.5573    0.0000 C   0  0  0  0  0  0  0  0  0  0  0  0
   -4.7587   -5.4918    0.0000 C   0  0  0  0  0  0  0  0  0  0  0  0
   -9.0087   -3.5336    0.0000 C   0  0  0  0  0  0  0  0  0  0  0  0
  1 25  1  0  0  0  0
  2 28  1  0  0  0  0
  2 31  1  0  0  0  0
  3  9  1  0  0  0  0
  3 11  1  0  0  0  0
  3 15  1  0  0  0  0
  4 10  1  0  0  0  0
  4 11  2  0  0  0  0
  5 12  2  0  0  0  0
  5 20  1  0  0  0  0
  6 14  2  0  0  0  0
  6 17  1  0  0  0  0
  7 20  2  0  0  0  0
  7 21  1  0  0  0  0
  8 20  1  0  0  0  0
  8 26  1  0  0  0  0
  9 10  2  0  0  0  0
  9 12  1  0  0  0  0
 10 13  1  0  0  0  0
 11 14  1  0  0  0  0
 12 16  1  0  0  0  0
 13 18  2  0  0  0  0
 13 19  1  0  0  0  0
 14 22  1  0  0  0  0
 15 17  2  0  0  0  0
 16 21  2  0  0  0  0
 18 23  1  0  0  0  0
 19 24  2  0  0  0  0
 23 25  2  0  0  0  0
 24 25  1  0  0  0  0
 26 27  1  0  0  0  0
 27 28  1  0  0  0  0
 27 29  1  0  0  0  0
 27 30  1  0  0  0  0
M  END
> <Value>
5.899998417198648

> <Relation>
<

> <SourceURI>
mol:CHEMBL1982563

$$$$

Generated by Molecular Materials Informatics

 21 23  0  0  0  0  0  0  0  0999 V2000
   -6.1122    4.3669    0.0000 F   0  0  0  0  0  0  0  0  0  0  0  0
   -4.9569    2.5878    0.0000 F   0  0  0  0  0  0  0  0  0  0  0  0
   -4.3331    5.5222    0.0000 F   0  0  0  0  0  0  0  0  0  0  0  0
    4.5402   -2.1355    0.0000 O   0  0  0  0  0  0  0  0  0  0  0  0
   -1.6651   -0.6355    0.0000 N   0  0  0  0  0  0  0  0  0  0  0  0
   -0.7835   -1.8489    0.0000 N   0  0  0  0  0  0  0  0  0  0  0  0
    1.9422   -2.1355    0.0000 N   0  0  0  0  0  0  0  0  0  0  0  0
    0.6431    0.1145    0.0000 C   0  0  0  0  0  0  0  0  0  0  0  0
   -0.7835    0.5780    0.0000 C   0  0  0  0  0  0  0  0  0  0  0  0
    0.6431   -1.3855    0.0000 C   0  0  0  0  0  0  0  0  0  0  0  0
   -1.2471    2.0047    0.0000 C   0  0  0  0  0  0  0  0  0  0  0  0
    1.9422    0.8645    0.0000 C   0  0  0  0  0  0  0  0  0  0  0  0
   -3.1778    3.7431    0.0000 C   0  0  0  0  0  0  0  0  0  0  0  0
   -2.7142    2.3165    0.0000 C   0  0  0  0  0  0  0  0  0  0  0  0
    3.2411   -1.3855    0.0000 C   0  0  0  0  0  0  0  0  0  0  0  0
    3.2411    0.1145    0.0000 C   0  0  0  0  0  0  0  0  0  0  0  0
   -4.6449    4.0549    0.0000 C   0  0  0  0  0  0  0  0  0  0  0  0
   -0.2433    3.1194    0.0000 C   0  0  0  0  0  0  0  0  0  0  0  0
   -2.1740    4.8578    0.0000 C   0  0  0  0  0  0  0  0  0  0  0  0
   -0.7069    4.5460    0.0000 C   0  0  0  0  0  0  0  0  0  0  0  0
    1.9422    2.3645    0.0000 C   0  0  0  0  0  0  0  0  0  0  0  0
  1 17  1  0  0  0  0
  2 17  1  0  0  0  0
  3 17  1  0  0  0  0
  4 15  2  0  0  0  0
  5  6  1  0  0  0  0
  5  9  2  0  0  0  0
  6 10  1  0  0  0  0
  7 10  1  0  0  0  0
  7 15  1  0  0  0  0
  8  9  1  0  0  0  0
  8 10  2  0  0  0  0
  8 12  1  0  0  0  0
  9 11  1  0  0  0  0
 11 14  1  0  0  0  0
 11 18  2  0  0  0  0
 12 16  2  0  0  0  0
 12 21  1  0  0  0  0
 13 14  2  0  0  0  0
 13 17  1  0  0  0  0
 13 19  1  0  0  0  0
 15 16  1  0  0  0  0
 18 20  1  0  0  0  0
 19 20  2  0  0  0  0
M  END
> <Value>
5.300000202445418

> <Relation>
<

> <SourceURI>
mol:CHEMBL1991377

$$$$

Generated by Molecular Materials Informatics

 36 40  0  0  0  0  0  0  0  0999 V2000
   -0.7684    4.5817    0.0000 S   0  0  0  0  0  0  0  0  0  0  0  0
    4.4034  -11.3546    0.0000 F   0  0  0  0  0  0  0  0  0  0  0  0
    1.9325  -10.5519    0.0000 F   0  0  0  0  0  0  0  0  0  0  0  0
   -2.0824   -6.0930    0.0000 O   0  0  0  0  0  0  0  0  0  0  0  0
    3.8632   -8.8133    0.0000 O   0  0  0  0  0  0  0  0  0  0  0  0
    3.2563    2.6181    0.0000 N   0  0  0  0  0  0  0  0  0  0  0  0
    1.2072    8.6765    0.0000 N   0  0  0  0  0  0  0  0  0  0  0  0
    1.9572    0.3681    0.0000 N   0  0  0  0  0  0  0  0  0  0  0  0
    2.7072    8.6765    0.0000 N   0  0  0  0  0  0  0  0  0  0  0  0
   -2.6226   -3.5517    0.0000 N   0  0  0  0  0  0  0  0  0  0  0  0
   -0.1517   -4.3546    0.0000 N   0  0  0  0  0  0  0  0  0  0  0  0
    0.6581    2.6181    0.0000 C   0  0  0  0  0  0  0  0  0  0  0  0
    0.6581    4.1181    0.0000 C   0  0  0  0  0  0  0  0  0  0  0  0
   -0.7684    2.1546    0.0000 C   0  0  0  0  0  0  0  0  0  0  0  0
    1.9572    4.8681    0.0000 C   0  0  0  0  0  0  0  0  0  0  0  0
    1.9572    1.8681    0.0000 C   0  0  0  0  0  0  0  0  0  0  0  0
   -1.2319    0.7281    0.0000 C   0  0  0  0  0  0  0  0  0  0  0  0
    1.9572    6.3681    0.0000 C   0  0  0  0  0  0  0  0  0  0  0  0
   -1.6501    3.3681    0.0000 C   0  0  0  0  0  0  0  0  0  0  0  0
    3.2563    4.1181    0.0000 C   0  0  0  0  0  0  0  0  0  0  0  0
    0.7436    7.2499    0.0000 C   0  0  0  0  0  0  0  0  0  0  0  0
    3.1707    7.2499    0.0000 C   0  0  0  0  0  0  0  0  0  0  0  0
   -0.2282   -0.3866    0.0000 C   0  0  0  0  0  0  0  0  0  0  0  0
   -2.6992    0.4163    0.0000 C   0  0  0  0  0  0  0  0  0  0  0  0
   -2.1590   -2.1252    0.0000 C   0  0  0  0  0  0  0  0  0  0  0  0
   -0.6919   -1.8132    0.0000 C   0  0  0  0  0  0  0  0  0  0  0  0
   -3.1628   -1.0104    0.0000 C   0  0  0  0  0  0  0  0  0  0  0  0
    0.3256    9.8899    0.0000 C   0  0  0  0  0  0  0  0  0  0  0  0
   -1.6188   -4.6664    0.0000 C   0  0  0  0  0  0  0  0  0  0  0  0
    0.8521   -5.4692    0.0000 C   0  0  0  0  0  0  0  0  0  0  0  0
    2.8594   -7.6986    0.0000 C   0  0  0  0  0  0  0  0  0  0  0  0
    2.3192   -5.1573    0.0000 C   0  0  0  0  0  0  0  0  0  0  0  0
    0.3885   -6.8959    0.0000 C   0  0  0  0  0  0  0  0  0  0  0  0
    3.3230   -6.2721    0.0000 C   0  0  0  0  0  0  0  0  0  0  0  0
    1.3923   -8.0106    0.0000 C   0  0  0  0  0  0  0  0  0  0  0  0
    3.3996  -10.2399    0.0000 C   0  0  0  0  0  0  0  0  0  0  0  0
  1 13  1  0  0  0  0
  1 19  1  0  0  0  0
  2 36  1  0  0  0  0
  3 36  1  0  0  0  0
  4 29  2  0  0  0  0
  5 31  1  0  0  0  0
  5 36  1  0  0  0  0
  6 16  2  0  0  0  0
  6 20  1  0  0  0  0
  7  9  1  0  0  0  0
  7 21  1  0  0  0  0
  7 28  1  0  0  0  0
  8 16  1  0  0  0  0
  9 22  2  0  0  0  0
 10 25  1  0  0  0  0
 10 29  1  0  0  0  0
 11 29  1  0  0  0  0
 11 30  1  0  0  0  0
 12 13  2  0  0  0  0
 12 14  1  0  0  0  0
 12 16  1  0  0  0  0
 13 15  1  0  0  0  0
 14 17  1  0  0  0  0
 14 19  2  0  0  0  0
 15 18  1  0  0  0  0
 15 20  2  0  0  0  0
 17 23  2  0  0  0  0
 17 24  1  0  0  0  0
 18 21  2  0  0  0  0
 18 22  1  0  0  0  0
 23 26  1  0  0  0  0
 24 27  2  0  0  0  0
 25 26  2  0  0  0  0
 25 27  1  0  0  0  0
 30 32  2  0  0  0  0
 30 33  1  0  0  0  0
 31 34  2  0  0  0  0
 31 35  1  0  0  0  0
 32 34  1  0  0  0  0
 33 35  2  0  0  0  0
M  END
> <Value>
5.899998417198648

> <Relation>
<

> <SourceURI>
mol:CHEMBL1988387

$$$$

Generated by Molecular Materials Informatics

 17 19  0  0  0  0  0  0  0  0999 V2000
   -3.7671   -1.8187    0.0000 O   0  0  0  0  0  0  0  0  0  0  0  0
   -1.1691    1.1813    0.0000 N   0  0  0  0  0  0  0  0  0  0  0  0
    6.6250   -3.3187    0.0000 N   0  0  0  0  0  0  0  0  0  0  0  0
    0.1299   -1.0687    0.0000 C   0  0  0  0  0  0  0  0  0  0  0  0
    0.1299    0.4313    0.0000 C   0  0  0  0  0  0  0  0  0  0  0  0
    2.7280   -1.0687    0.0000 C   0  0  0  0  0  0  0  0  0  0  0  0
    1.4289   -1.8187    0.0000 C   0  0  0  0  0  0  0  0  0  0  0  0
    4.0270   -1.8187    0.0000 C   0  0  0  0  0  0  0  0  0  0  0  0
   -1.1691   -1.8187    0.0000 C   0  0  0  0  0  0  0  0  0  0  0  0
    1.4289    1.1813    0.0000 C   0  0  0  0  0  0  0  0  0  0  0  0
    2.7280    0.4313    0.0000 C   0  0  0  0  0  0  0  0  0  0  0  0
   -2.4682   -1.0687    0.0000 C   0  0  0  0  0  0  0  0  0  0  0  0
   -2.4682    0.4313    0.0000 C   0  0  0  0  0  0  0  0  0  0  0  0
    4.0270   -3.3187    0.0000 C   0  0  0  0  0  0  0  0  0  0  0  0
    5.3261   -1.0687    0.0000 C   0  0  0  0  0  0  0  0  0  0  0  0
    5.3261   -4.0688    0.0000 C   0  0  0  0  0  0  0  0  0  0  0  0
    6.6250   -1.8187    0.0000 C   0  0  0  0  0  0  0  0  0  0  0  0
  1 12  1  0  0  0  0
  2  5  2  0  0  0  0
  2 13  1  0  0  0  0
  3 16  2  0  0  0  0
  3 17  1  0  0  0  0
  4  5  1  0  0  0  0
  4  7  1  0  0  0  0
  4  9  2  0  0  0  0
  5 10  1  0  0  0  0
  6  7  2  0  0  0  0
  6  8  1  0  0  0  0
  6 11  1  0  0  0  0
  8 14  2  0  0  0  0
  8 15  1  0  0  0  0
  9 12  1  0  0  0  0
 10 11  2  0  0  0  0
 12 13  2  0  0  0  0
 14 16  1  0  0  0  0
 15 17  2  0  0  0  0
M  END
> <Value>
5.300000202445418

> <Relation>
<

> <SourceURI>
mol:CHEMBL1973868

$$$$

Generated by Molecular Materials Informatics

 20 21  0  0  0  0  0  0  0  0999 V2000
   -1.1185   -6.9398    0.0000 O   0  0  0  0  0  0  0  0  0  0  0  0
    1.4795   -6.9398    0.0000 O   0  0  0  0  0  0  0  0  0  0  0  0
    0.1804   -2.5685    0.0000 N   0  0  0  0  0  0  0  0  0  0  0  0
    0.1804   -4.6898    0.0000 C   0  0  0  0  0  0  0  0  0  0  0  0
    1.2411   -3.6292    0.0000 C   0  0  0  0  0  0  0  0  0  0  0  0
   -0.8802   -3.6292    0.0000 C   0  0  0  0  0  0  0  0  0  0  0  0
    0.1804   -1.0685    0.0000 C   0  0  0  0  0  0  0  0  0  0  0  0
    1.4795   -0.3185    0.0000 C   0  0  0  0  0  0  0  0  0  0  0  0
    0.1804   -6.1898    0.0000 C   0  0  0  0  0  0  0  0  0  0  0  0
    1.4795    1.1815    0.0000 C   0  0  0  0  0  0  0  0  0  0  0  0
    2.7786   -1.0685    0.0000 C   0  0  0  0  0  0  0  0  0  0  0  0
    4.0776    1.1815    0.0000 C   0  0  0  0  0  0  0  0  0  0  0  0
    2.7786    1.9315    0.0000 C   0  0  0  0  0  0  0  0  0  0  0  0
    4.0776   -0.3185    0.0000 C   0  0  0  0  0  0  0  0  0  0  0  0
    5.3765    1.9315    0.0000 C   0  0  0  0  0  0  0  0  0  0  0  0
    6.6756    2.6815    0.0000 C   0  0  0  0  0  0  0  0  0  0  0  0
    7.9747    3.4315    0.0000 C   0  0  0  0  0  0  0  0  0  0  0  0
    7.9747    4.9315    0.0000 C   0  0  0  0  0  0  0  0  0  0  0  0
    9.2736    5.6815    0.0000 C   0  0  0  0  0  0  0  0  0  0  0  0
    9.2736    7.1815    0.0000 C   0  0  0  0  0  0  0  0  0  0  0  0
  1  9  2  0  0  0  0
  2  9  1  0  0  0  0
  3  5  1  0  0  0  0
  3  6  1  0  0  0  0
  3  7  1  0  0  0  0
  4  5  1  0  0  0  0
  4  6  1  0  0  0  0
  4  9  1  0  0  0  0
  7  8  1  0  0  0  0
  8 10  2  0  0  0  0
  8 11  1  0  0  0  0
 10 13  1  0  0  0  0
 11 14  2  0  0  0  0
 12 13  2  0  0  0  0
 12 14  1  0  0  0  0
 12 15  1  0  0  0  0
 15 16  3  0  0  0  0
 16 17  1  0  0  0  0
 17 18  1  0  0  0  0
 18 19  1  0  0  0  0
 19 20  1  0  0  0  0
M  END
> <Value>
5.300000202445418

> <Relation>
<

> <SourceURI>
mol:CHEMBL1972462

$$$$

Generated by Molecular Materials Informatics

 32 36  0  0  0  0  0  0  0  0999 V2000
   -4.9049   -0.8141    0.0000 O   0  0  0  0  0  0  0  0  0  0  0  0
   -1.9703    2.2366    0.0000 N   0  0  0  0  0  0  0  0  0  0  0  0
   -2.8520    1.0232    0.0000 N   0  0  0  0  0  0  0  0  0  0  0  0
   -2.4338   -1.6170    0.0000 N   0  0  0  0  0  0  0  0  0  0  0  0
    5.7272   -0.9815    0.0000 N   0  0  0  0  0  0  0  0  0  0  0  0
    3.5102   -1.9686    0.0000 N   0  0  0  0  0  0  0  0  0  0  0  0
    4.9772   -2.2806    0.0000 N   0  0  0  0  0  0  0  0  0  0  0  0
   -1.8171   -8.1262    0.0000 N   0  0  0  0  0  0  0  0  0  0  0  0
   -0.5438    0.2732    0.0000 C   0  0  0  0  0  0  0  0  0  0  0  0
   -0.5438    1.7732    0.0000 C   0  0  0  0  0  0  0  0  0  0  0  0
   -1.9703   -0.1904    0.0000 C   0  0  0  0  0  0  0  0  0  0  0  0
    2.0544    0.2732    0.0000 C   0  0  0  0  0  0  0  0  0  0  0  0
    0.7553   -0.4768    0.0000 C   0  0  0  0  0  0  0  0  0  0  0  0
    3.3532   -0.4768    0.0000 C   0  0  0  0  0  0  0  0  0  0  0  0
    0.7553    2.5232    0.0000 C   0  0  0  0  0  0  0  0  0  0  0  0
    2.0544    1.7732    0.0000 C   0  0  0  0  0  0  0  0  0  0  0  0
    4.7236    0.1332    0.0000 C   0  0  0  0  0  0  0  0  0  0  0  0
   -3.9010   -1.9288    0.0000 C   0  0  0  0  0  0  0  0  0  0  0  0
   -4.3647   -3.3555    0.0000 C   0  0  0  0  0  0  0  0  0  0  0  0
    7.2190   -0.8246    0.0000 C   0  0  0  0  0  0  0  0  0  0  0  0
   -3.3609   -4.4700    0.0000 C   0  0  0  0  0  0  0  0  0  0  0  0
    8.1007   -2.0382    0.0000 C   0  0  0  0  0  0  0  0  0  0  0  0
   -5.8318   -3.6673    0.0000 C   0  0  0  0  0  0  0  0  0  0  0  0
   -3.8245   -5.8967    0.0000 C   0  0  0  0  0  0  0  0  0  0  0  0
   -6.2954   -5.0938    0.0000 C   0  0  0  0  0  0  0  0  0  0  0  0
   -5.2916   -6.2086    0.0000 C   0  0  0  0  0  0  0  0  0  0  0  0
    9.5925   -1.8813    0.0000 C   0  0  0  0  0  0  0  0  0  0  0  0
    7.4907   -3.4086    0.0000 C   0  0  0  0  0  0  0  0  0  0  0  0
   -2.8207   -7.0115    0.0000 C   0  0  0  0  0  0  0  0  0  0  0  0
   10.4741   -3.0950    0.0000 C   0  0  0  0  0  0  0  0  0  0  0  0
    8.3723   -4.6220    0.0000 C   0  0  0  0  0  0  0  0  0  0  0  0
    9.8641   -4.4653    0.0000 C   0  0  0  0  0  0  0  0  0  0  0  0
  1 18  2  0  0  0  0
  2  3  1  0  0  0  0
  2 10  1  0  0  0  0
  3 11  2  0  0  0  0
  4 11  1  0  0  0  0
  4 18  1  0  0  0  0
  5  7  1  0  0  0  0
  5 17  1  0  0  0  0
  5 20  1  0  0  0  0
  6  7  2  0  0  0  0
  6 14  1  0  0  0  0
  8 29  3  0  0  0  0
  9 10  1  0  0  0  0
  9 11  1  0  0  0  0
  9 13  2  0  0  0  0
 10 15  2  0  0  0  0
 12 13  1  0  0  0  0
 12 14  1  0  0  0  0
 12 16  2  0  0  0  0
 14 17  2  0  0  0  0
 15 16  1  0  0  0  0
 18 19  1  0  0  0  0
 19 21  1  0  0  0  0
 19 23  2  0  0  0  0
 20 22  1  0  0  0  0
 21 24  2  0  0  0  0
 22 27  2  0  0  0  0
 22 28  1  0  0  0  0
 23 25  1  0  0  0  0
 24 26  1  0  0  0  0
 24 29  1  0  0  0  0
 25 26  2  0  0  0  0
 27 30  1  0  0  0  0
 28 31  2  0  0  0  0
 30 32  2  0  0  0  0
 31 32  1  0  0  0  0
M  END
> <Value>
6.799998134593398

> <Relation>
=

> <SourceURI>
mol:CHEMBL1977128

$$$$

Generated by Molecular Materials Informatics

 26 29  0  0  0  0  0  0  0  0999 V2000
   -5.4623    3.3415    0.0000 Cl  0  0  0  0  0  0  0  0  0  0  0  0
   -1.0607    2.4060    0.0000 N   0  0  0  0  0  0  0  0  0  0  0  0
   -1.6009   -2.5623    0.0000 N   0  0  0  0  0  0  0  0  0  0  0  0
   -2.9914    4.1444    0.0000 N   0  0  0  0  0  0  0  0  0  0  0  0
    1.1248   -2.8489    0.0000 N   0  0  0  0  0  0  0  0  0  0  0  0
   -0.5205    4.9473    0.0000 N   0  0  0  0  0  0  0  0  0  0  0  0
    4.4213    6.5529    0.0000 N   0  0  0  0  0  0  0  0  0  0  0  0
   -1.6009   -0.1354    0.0000 C   0  0  0  0  0  0  0  0  0  0  0  0
   -0.1743   -0.5989    0.0000 C   0  0  0  0  0  0  0  0  0  0  0  0
   -2.0645    1.2913    0.0000 C   0  0  0  0  0  0  0  0  0  0  0  0
   -0.1743   -2.0989    0.0000 C   0  0  0  0  0  0  0  0  0  0  0  0
   -2.4825   -1.3489    0.0000 C   0  0  0  0  0  0  0  0  0  0  0  0
   -1.5243    3.8326    0.0000 C   0  0  0  0  0  0  0  0  0  0  0  0
   -3.5316    1.6031    0.0000 C   0  0  0  0  0  0  0  0  0  0  0  0
    1.1248    0.1511    0.0000 C   0  0  0  0  0  0  0  0  0  0  0  0
   -3.9952    3.0297    0.0000 C   0  0  0  0  0  0  0  0  0  0  0  0
    0.9466    4.6353    0.0000 C   0  0  0  0  0  0  0  0  0  0  0  0
    2.4237   -0.5989    0.0000 C   0  0  0  0  0  0  0  0  0  0  0  0
    2.4237   -2.0989    0.0000 C   0  0  0  0  0  0  0  0  0  0  0  0
    1.9504    5.7500    0.0000 C   0  0  0  0  0  0  0  0  0  0  0  0
    3.4175    5.4382    0.0000 C   0  0  0  0  0  0  0  0  0  0  0  0
    1.4102    3.2088    0.0000 C   0  0  0  0  0  0  0  0  0  0  0  0
    3.8811    4.0117    0.0000 C   0  0  0  0  0  0  0  0  0  0  0  0
    2.8773    2.8969    0.0000 C   0  0  0  0  0  0  0  0  0  0  0  0
    3.9577    7.9795    0.0000 C   0  0  0  0  0  0  0  0  0  0  0  0
    5.8884    6.2411    0.0000 C   0  0  0  0  0  0  0  0  0  0  0  0
  1 16  1  0  0  0  0
  2 10  2  0  0  0  0
  2 13  1  0  0  0  0
  3 11  1  0  0  0  0
  3 12  1  0  0  0  0
  4 13  2  0  0  0  0
  4 16  1  0  0  0  0
  5 11  2  0  0  0  0
  5 19  1  0  0  0  0
  6 13  1  0  0  0  0
  6 17  1  0  0  0  0
  7 21  1  0  0  0  0
  7 25  1  0  0  0  0
  7 26  1  0  0  0  0
  8  9  1  0  0  0  0
  8 10  1  0  0  0  0
  8 12  2  0  0  0  0
  9 11  1  0  0  0  0
  9 15  2  0  0  0  0
 10 14  1  0  0  0  0
 14 16  2  0  0  0  0
 15 18  1  0  0  0  0
 17 20  1  0  0  0  0
 17 22  1  0  0  0  0
 18 19  2  0  0  0  0
 20 21  1  0  0  0  0
 21 23  1  0  0  0  0
 22 24  1  0  0  0  0
 23 24  1  0  0  0  0
M  END
> <Value>
7.100015437450609

> <Relation>
=

> <SourceURI>
mol:CHEMBL1965702

$$$$

Generated by Molecular Materials Informatics

 30 33  0  0  0  0  0  0  0  0999 V2000
   -4.6687   -5.3840    0.0000 C   0  0  0  0  0  0  0  0  0  0  0  0
   -5.9677   -6.1340    0.0000 C   0  0  0  0  0  0  0  0  0  0  0  0
   -7.2668   -5.3840    0.0000 N   0  0  0  0  0  0  0  0  0  0  0  0
   -8.5656   -6.1340    0.0000 C   0  0  0  0  0  0  0  0  0  0  0  0
   -7.2668   -3.8841    0.0000 C   0  0  0  0  0  0  0  0  0  0  0  0
   -5.9677   -3.1341    0.0000 C   0  0  0  0  0  0  0  0  0  0  0  0
   -4.6687   -3.8841    0.0000 C   0  0  0  0  0  0  0  0  0  0  0  0
   -3.3696   -3.1341    0.0000 C   0  0  0  0  0  0  0  0  0  0  0  0
   -3.3696   -1.6342    0.0000 O   0  0  0  0  0  0  0  0  0  0  0  0
   -2.0708   -0.8842    0.0000 C   0  0  0  0  0  0  0  0  0  0  0  0
   -0.7717   -1.6342    0.0000 C   0  0  0  0  0  0  0  0  0  0  0  0
   -2.0708    0.6158    0.0000 C   0  0  0  0  0  0  0  0  0  0  0  0
   -3.3696    1.3658    0.0000 O   0  0  0  0  0  0  0  0  0  0  0  0
   -3.3696    2.8657    0.0000 C   0  0  0  0  0  0  0  0  0  0  0  0
   -0.7717    1.3658    0.0000 C   0  0  0  0  0  0  0  0  0  0  0  0
    0.5274    0.6158    0.0000 C   0  0  0  0  0  0  0  0  0  0  0  0
    0.5274   -0.8842    0.0000 C   0  0  0  0  0  0  0  0  0  0  0  0
    1.8262   -1.6342    0.0000 N   0  0  0  0  0  0  0  0  0  0  0  0
    3.1253   -0.8842    0.0000 C   0  0  0  0  0  0  0  0  0  0  0  0
    3.1253    0.6158    0.0000 N   0  0  0  0  0  0  0  0  0  0  0  0
    1.8262    1.3658    0.0000 C   0  0  0  0  0  0  0  0  0  0  0  0
    1.8262    2.8657    0.0000 N   0  0  0  0  0  0  0  0  0  0  0  0
    3.1253    3.6157    0.0000 C   0  0  0  0  0  0  0  0  0  0  0  0
    4.4243    2.8657    0.0000 C   0  0  0  0  0  0  0  0  0  0  0  0
    5.7234    3.6157    0.0000 C   0  0  0  0  0  0  0  0  0  0  0  0
    5.7234    5.1156    0.0000 C   0  0  0  0  0  0  0  0  0  0  0  0
    7.0222    5.8656    0.0000 Br  0  0  0  0  0  0  0  0  0  0  0  0
    4.4243    5.8656    0.0000 C   0  0  0  0  0  0  0  0  0  0  0  0
    3.1253    5.1156    0.0000 C   0  0  0  0  0  0  0  0  0  0  0  0
    1.8262    5.8656    0.0000 F   0  0  0  0  0  0  0  0  0  0  0  0
  1  2  1  0  0  0  0
  1  7  1  0  0  0  0
  2  3  1  0  0  0  0
  4  3  1  0  0  0  0
  5  3  1  0  0  0  0
  6  5  1  0  0  0  0
  6  7  1  0  0  0  0
  8  7  1  0  0  0  0
  8  9  1  0  0  0  0
 10  9  1  0  0  0  0
 11 10  2  0  0  0  0
 12 10  1  0  0  0  0
 17 11  1  0  0  0  0
 12 13  1  0  0  0  0
 15 12  2  0  0  0  0
 14 13  1  0  0  0  0
 16 15  1  0  0  0  0
 17 16  1  0  0  0  0
 16 21  2  0  0  0  0
 17 18  2  0  0  0  0
 19 18  1  0  0  0  0
 19 20  2  0  0  0  0
 21 20  1  0  0  0  0
 21 22  1  0  0  0  0
 23 22  1  0  0  0  0
 24 23  2  0  0  0  0
 29 23  1  0  0  0  0
 25 24  1  0  0  0  0
 25 26  2  0  0  0  0
 27 26  1  0  0  0  0
 28 26  1  0  0  0  0
 28 29  2  0  0  0  0
 29 30  1  0  0  0  0
M  END
> <Value>
5.300000202445418

> <Relation>
<

> <SourceURI>
mol:CHEMBL24828

$$$$

Generated by Molecular Materials Informatics

 29 32  0  0  0  0  0  0  0  0999 V2000
    6.9591   -5.6426    0.0000 O   0  0  0  0  0  0  0  0  0  0  0  0
    0.4640   -4.8926    0.0000 O   0  0  0  0  0  0  0  0  0  0  0  0
    4.4465   -2.5110    0.0000 N   0  0  0  0  0  0  0  0  0  0  0  0
    6.4101   -1.0842    0.0000 N   0  0  0  0  0  0  0  0  0  0  0  0
    4.9101   -1.0842    0.0000 N   0  0  0  0  0  0  0  0  0  0  0  0
    4.3610   -5.6426    0.0000 N   0  0  0  0  0  0  0  0  0  0  0  0
   12.6451   -4.0582    0.0000 N   0  0  0  0  0  0  0  0  0  0  0  0
   13.2552   -2.6879    0.0000 N   0  0  0  0  0  0  0  0  0  0  0  0
    5.6601   -3.3926    0.0000 C   0  0  0  0  0  0  0  0  0  0  0  0
    6.8736   -2.5110    0.0000 C   0  0  0  0  0  0  0  0  0  0  0  0
    8.3001   -2.9744    0.0000 C   0  0  0  0  0  0  0  0  0  0  0  0
    5.6601   -4.8926    0.0000 C   0  0  0  0  0  0  0  0  0  0  0  0
   10.8414   -2.4342    0.0000 C   0  0  0  0  0  0  0  0  0  0  0  0
    9.4149   -1.9708    0.0000 C   0  0  0  0  0  0  0  0  0  0  0  0
   11.1534   -3.9015    0.0000 C   0  0  0  0  0  0  0  0  0  0  0  0
    8.6120   -4.4417    0.0000 C   0  0  0  0  0  0  0  0  0  0  0  0
    3.0200   -2.9744    0.0000 C   0  0  0  0  0  0  0  0  0  0  0  0
   10.0387   -4.9052    0.0000 C   0  0  0  0  0  0  0  0  0  0  0  0
    1.9052   -1.9708    0.0000 C   0  0  0  0  0  0  0  0  0  0  0  0
   12.1405   -1.6842    0.0000 C   0  0  0  0  0  0  0  0  0  0  0  0
    3.0620   -4.8926    0.0000 C   0  0  0  0  0  0  0  0  0  0  0  0
    4.3610   -7.1426    0.0000 C   0  0  0  0  0  0  0  0  0  0  0  0
    0.4787   -2.4342    0.0000 C   0  0  0  0  0  0  0  0  0  0  0  0
    2.2170   -0.5035    0.0000 C   0  0  0  0  0  0  0  0  0  0  0  0
    1.7629   -5.6426    0.0000 C   0  0  0  0  0  0  0  0  0  0  0  0
   -0.6360   -1.4306    0.0000 C   0  0  0  0  0  0  0  0  0  0  0  0
    1.1023    0.5001    0.0000 C   0  0  0  0  0  0  0  0  0  0  0  0
   -0.3242    0.0367    0.0000 C   0  0  0  0  0  0  0  0  0  0  0  0
   -0.8351   -5.6426    0.0000 C   0  0  0  0  0  0  0  0  0  0  0  0
  1 12  2  0  0  0  0
  2 25  1  0  0  0  0
  2 29  1  0  0  0  0
  3  5  1  0  0  0  0
  3  9  1  0  0  0  0
  3 17  1  0  0  0  0
  4  5  2  0  0  0  0
  4 10  1  0  0  0  0
  6 12  1  0  0  0  0
  6 21  1  0  0  0  0
  6 22  1  0  0  0  0
  7  8  1  0  0  0  0
  7 15  1  0  0  0  0
  8 20  2  0  0  0  0
  9 10  2  0  0  0  0
  9 12  1  0  0  0  0
 10 11  1  0  0  0  0
 11 14  1  0  0  0  0
 11 16  2  0  0  0  0
 13 14  2  0  0  0  0
 13 15  1  0  0  0  0
 13 20  1  0  0  0  0
 15 18  2  0  0  0  0
 16 18  1  0  0  0  0
 17 19  1  0  0  0  0
 19 23  2  0  0  0  0
 19 24  1  0  0  0  0
 21 25  1  0  0  0  0
 23 26  1  0  0  0  0
 24 27  2  0  0  0  0
 26 28  2  0  0  0  0
 27 28  1  0  0  0  0
M  END
> <Value>
5.899998417198648

> <Relation>
<

> <SourceURI>
mol:CHEMBL1986970

$$$$

Generated by Molecular Materials Informatics

 20 22  0  0  0  0  0  0  0  0999 V2000
   -3.6237   -4.5826    0.0000 C   0  0  0  0  0  0  0  0  0  0  0  0
   -3.6237   -6.0826    0.0000 C   0  0  0  0  0  0  0  0  0  0  0  0
   -2.3292   -6.8250    0.0000 N   0  0  0  0  0  0  0  0  0  0  0  0
   -1.0346   -6.0826    0.0000 C   0  0  0  0  0  0  0  0  0  0  0  0
   -1.0346   -4.5826    0.0000 N   0  0  0  0  0  0  0  0  0  0  0  0
   -2.3292   -3.8249    0.0000 C   0  0  0  0  0  0  0  0  0  0  0  0
   -2.3292   -2.3249    0.0000 O   0  0  0  0  0  0  0  0  0  0  0  0
    0.2634   -6.8344    0.0000 N   0  0  0  0  0  0  0  0  0  0  0  0
    1.5634   -6.0864    0.0000 C   0  0  0  0  0  0  0  0  0  0  0  0
    2.8660   -6.8423    0.0000 C   0  0  0  0  0  0  0  0  0  0  0  0
    4.1622   -6.1006    0.0000 C   0  0  0  0  0  0  0  0  0  0  0  0
    4.1722   -4.5999    0.0000 C   0  0  0  0  0  0  0  0  0  0  0  0
    2.8745   -3.8440    0.0000 C   0  0  0  0  0  0  0  0  0  0  0  0
    1.5669   -4.5888    0.0000 C   0  0  0  0  0  0  0  0  0  0  0  0
   -4.9199   -6.8353    0.0000 C   0  0  0  0  0  0  0  0  0  0  0  0
   -6.2207   -6.0841    0.0000 C   0  0  0  0  0  0  0  0  0  0  0  0
   -7.5178   -6.8348    0.0000 C   0  0  0  0  0  0  0  0  0  0  0  0
   -7.5163   -8.3365    0.0000 N   0  0  0  0  0  0  0  0  0  0  0  0
   -6.2071   -9.0843    0.0000 C   0  0  0  0  0  0  0  0  0  0  0  0
   -4.9154   -8.3292    0.0000 C   0  0  0  0  0  0  0  0  0  0  0  0
  2  3  1  0  0  0  0
  3  4  2  0  0  0  0
  4  5  1  0  0  0  0
  5  6  1  0  0  0  0
  9 14  1  0  0  0  0
 10 11  1  0  0  0  0
 11 12  1  0  0  0  0
 12 13  1  0  0  0  0
 13 14  1  0  0  0  0
  6  7  2  0  0  0  0
  1  2  2  0  0  0  0
 15 16  2  0  0  0  0
  4  8  1  0  0  0  0
 16 17  1  0  0  0  0
  1  6  1  0  0  0  0
 17 18  2  0  0  0  0
  8  9  1  0  0  0  0
 18 19  1  0  0  0  0
  9 10  1  0  0  0  0
 19 20  2  0  0  0  0
 20 15  1  0  0  0  0
  2 15  1  0  0  0  0
M  END
> <Value>
5.899998417198648

> <Relation>
<

> <SourceURI>
mol:CHEMBL1958401

$$$$

Generated by Molecular Materials Informatics

 31 34  0  0  0  0  0  0  0  0999 V2000
    4.8517   -1.9103    0.0000 C   0  0  0  0  0  0  0  0  0  0  0  0
    4.8517   -3.4134    0.0000 C   0  0  0  0  0  0  0  0  0  0  0  0
    8.7538   -8.6743    0.0000 S   0  0  0  0  0  0  0  0  0  0  0  0
    6.2865   -3.8689    0.0000 N   0  0  0  0  0  0  0  0  0  0  0  0
    7.1595   -2.6619    0.0000 N   0  0  0  0  0  0  0  0  0  0  0  0
    2.2554   -6.4196    0.0000 N   0  0  0  0  0  0  0  0  0  0  0  0
    6.2865   -1.4548    0.0000 C   0  0  0  0  0  0  0  0  0  0  0  0
    3.5535   -4.1650    0.0000 C   0  0  0  0  0  0  0  0  0  0  0  0
    2.2403   -3.4134    0.0000 C   0  0  0  0  0  0  0  0  0  0  0  0
    0.9421   -5.6681    0.0000 C   0  0  0  0  0  0  0  0  0  0  0  0
    2.2554   -7.9227    0.0000 C   0  0  0  0  0  0  0  0  0  0  0  0
    7.4556   -7.9227    0.0000 C   0  0  0  0  0  0  0  0  0  0  0  0
    3.5535   -1.1588    0.0000 C   0  0  0  0  0  0  0  0  0  0  0  0
    0.9421   -4.1650    0.0000 N   0  0  0  0  0  0  0  0  0  0  0  0
    2.2403   -1.9103    0.0000 C   0  0  0  0  0  0  0  0  0  0  0  0
    6.1575   -8.6743    0.0000 C   0  0  0  0  0  0  0  0  0  0  0  0
    3.5535   -8.6743    0.0000 N   0  0  0  0  0  0  0  0  0  0  0  0
    0.9421   -8.6743    0.0000 N   0  0  0  0  0  0  0  0  0  0  0  0
   10.0519   -9.4259    0.0000 O   0  0  0  0  0  0  0  0  0  0  0  0
    7.4556   -9.4259    0.0000 O   0  0  0  0  0  0  0  0  0  0  0  0
   -0.3560   -6.4196    0.0000 C   0  0  0  0  0  0  0  0  0  0  0  0
    4.8593   -7.9227    0.0000 C   0  0  0  0  0  0  0  0  0  0  0  0
   10.0519   -7.9227    0.0000 N   0  0  0  0  0  0  0  0  0  0  0  0
    7.4556   -6.4196    0.0000 C   0  0  0  0  0  0  0  0  0  0  0  0
    6.1575   -5.6681    0.0000 C   0  0  0  0  0  0  0  0  0  0  0  0
   -0.3560   -7.9227    0.0000 C   0  0  0  0  0  0  0  0  0  0  0  0
    8.6627   -2.6619    0.0000 C   0  0  0  0  0  0  0  0  0  0  0  0
    4.8593   -6.4196    0.0000 C   0  0  0  0  0  0  0  0  0  0  0  0
    6.7496   -0.0200    0.0000 C   0  0  0  0  0  0  0  0  0  0  0  0
   -0.3560   -3.4134    0.0000 C   0  0  0  0  0  0  0  0  0  0  0  0
    8.7538   -5.6681    0.0000 C   0  0  0  0  0  0  0  0  0  0  0  0
  2  1  1  0  0  0  0
  3 12  1  0  0  0  0
  4  2  2  0  0  0  0
  5  7  1  0  0  0  0
  6 10  2  0  0  0  0
  7  1  2  0  0  0  0
  8  2  1  0  0  0  0
  9 15  1  0  0  0  0
 10 14  1  0  0  0  0
 11  6  1  0  0  0  0
 12 16  1  0  0  0  0
 13  1  1  0  0  0  0
 14  9  1  0  0  0  0
 15 13  2  0  0  0  0
 16 22  2  0  0  0  0
 17 11  1  0  0  0  0
 18 26  1  0  0  0  0
 19  3  2  0  0  0  0
 20  3  2  0  0  0  0
 21 10  1  0  0  0  0
 22 17  1  0  0  0  0
 23  3  1  0  0  0  0
 24 25  1  0  0  0  0
 25 28  2  0  0  0  0
 26 21  2  0  0  0  0
 27  5  1  0  0  0  0
 28 22  1  0  0  0  0
 29  7  1  0  0  0  0
 30 14  1  0  0  0  0
 31 24  1  0  0  0  0
  5  4  1  0  0  0  0
  8  9  2  0  0  0  0
 11 18  2  0  0  0  0
 24 12  2  0  0  0  0
M  END
> <Value>
5.300000202445418

> <Relation>
<

> <SourceURI>
mol:CHEMBL477772

$$$$

Generated by Molecular Materials Informatics

 25 27  0  0  0  0  0  0  0  0999 V2000
   -3.5596  -10.2188    0.0000 F   0  0  0  0  0  0  0  0  0  0  0  0
   -2.0596   -8.7188    0.0000 F   0  0  0  0  0  0  0  0  0  0  0  0
   -5.0596   -8.7188    0.0000 F   0  0  0  0  0  0  0  0  0  0  0  0
    2.9355    4.0313    0.0000 F   0  0  0  0  0  0  0  0  0  0  0  0
   -2.2605   -1.9687    0.0000 O   0  0  0  0  0  0  0  0  0  0  0  0
    0.3375   -1.9687    0.0000 N   0  0  0  0  0  0  0  0  0  0  0  0
   -2.2605   -6.4688    0.0000 N   0  0  0  0  0  0  0  0  0  0  0  0
    0.3375    2.5312    0.0000 N   0  0  0  0  0  0  0  0  0  0  0  0
   -0.9616   -4.2188    0.0000 N   0  0  0  0  0  0  0  0  0  0  0  0
    1.6366    0.2813    0.0000 C   0  0  0  0  0  0  0  0  0  0  0  0
    1.6366    1.7813    0.0000 C   0  0  0  0  0  0  0  0  0  0  0  0
    0.3375   -0.4687    0.0000 C   0  0  0  0  0  0  0  0  0  0  0  0
   -3.5596   -7.2188    0.0000 C   0  0  0  0  0  0  0  0  0  0  0  0
   -3.5596   -8.7188    0.0000 C   0  0  0  0  0  0  0  0  0  0  0  0
    2.9355    2.5312    0.0000 C   0  0  0  0  0  0  0  0  0  0  0  0
   -2.2605   -4.9688    0.0000 C   0  0  0  0  0  0  0  0  0  0  0  0
    2.9355   -0.4687    0.0000 C   0  0  0  0  0  0  0  0  0  0  0  0
   -0.9616   -2.7188    0.0000 C   0  0  0  0  0  0  0  0  0  0  0  0
   -0.9616    0.2813    0.0000 C   0  0  0  0  0  0  0  0  0  0  0  0
   -4.8587   -6.4688    0.0000 C   0  0  0  0  0  0  0  0  0  0  0  0
   -0.9616    1.7813    0.0000 C   0  0  0  0  0  0  0  0  0  0  0  0
    4.2346    1.7813    0.0000 C   0  0  0  0  0  0  0  0  0  0  0  0
   -3.5596   -4.2188    0.0000 C   0  0  0  0  0  0  0  0  0  0  0  0
    4.2346    0.2813    0.0000 C   0  0  0  0  0  0  0  0  0  0  0  0
   -4.8587   -4.9688    0.0000 C   0  0  0  0  0  0  0  0  0  0  0  0
  1 14  1  0  0  0  0
  2 14  1  0  0  0  0
  3 14  1  0  0  0  0
  4 15  1  0  0  0  0
  5 18  2  0  0  0  0
  6 12  1  0  0  0  0
  6 18  1  0  0  0  0
  7 13  2  0  0  0  0
  7 16  1  0  0  0  0
  8 11  2  0  0  0  0
  8 21  1  0  0  0  0
  9 16  1  0  0  0  0
  9 18  1  0  0  0  0
 10 11  1  0  0  0  0
 10 12  2  0  0  0  0
 10 17  1  0  0  0  0
 11 15  1  0  0  0  0
 12 19  1  0  0  0  0
 13 14  1  0  0  0  0
 13 20  1  0  0  0  0
 15 22  2  0  0  0  0
 16 23  2  0  0  0  0
 17 24  2  0  0  0  0
 19 21  2  0  0  0  0
 20 25  2  0  0  0  0
 22 24  1  0  0  0  0
 23 25  1  0  0  0  0
M  END
> <Value>
5.899998417198648

> <Relation>
<

> <SourceURI>
mol:CHEMBL1966816

$$$$

Generated by Molecular Materials Informatics

 21 23  0  0  0  0  0  0  0  0999 V2000
   -1.3643    1.3875    0.0000 O   0  0  0  0  0  0  0  0  0  0  0  0
    1.2339    1.3875    0.0000 N   0  0  0  0  0  0  0  0  0  0  0  0
   -1.4918   -2.8260    0.0000 N   0  0  0  0  0  0  0  0  0  0  0  0
    1.2339   -3.1125    0.0000 N   0  0  0  0  0  0  0  0  0  0  0  0
   -1.3643    8.8875    0.0000 N   0  0  0  0  0  0  0  0  0  0  0  0
   -0.0652   -0.8625    0.0000 C   0  0  0  0  0  0  0  0  0  0  0  0
    1.2339   -0.1125    0.0000 C   0  0  0  0  0  0  0  0  0  0  0  0
   -0.0652   -2.3625    0.0000 C   0  0  0  0  0  0  0  0  0  0  0  0
   -1.4918   -0.3990    0.0000 C   0  0  0  0  0  0  0  0  0  0  0  0
   -0.0652    2.1375    0.0000 C   0  0  0  0  0  0  0  0  0  0  0  0
    2.5328   -0.8625    0.0000 C   0  0  0  0  0  0  0  0  0  0  0  0
   -0.0652    3.6375    0.0000 C   0  0  0  0  0  0  0  0  0  0  0  0
   -2.3734   -1.6125    0.0000 C   0  0  0  0  0  0  0  0  0  0  0  0
    2.5328   -2.3625    0.0000 C   0  0  0  0  0  0  0  0  0  0  0  0
   -1.3643    4.3875    0.0000 C   0  0  0  0  0  0  0  0  0  0  0  0
    1.2339    4.3875    0.0000 C   0  0  0  0  0  0  0  0  0  0  0  0
   -0.0652    6.6375    0.0000 C   0  0  0  0  0  0  0  0  0  0  0  0
   -1.3643    5.8875    0.0000 C   0  0  0  0  0  0  0  0  0  0  0  0
    1.2339    5.8875    0.0000 C   0  0  0  0  0  0  0  0  0  0  0  0
   -0.0652    8.1375    0.0000 C   0  0  0  0  0  0  0  0  0  0  0  0
    1.2339    8.8875    0.0000 C   0  0  0  0  0  0  0  0  0  0  0  0
  1 10  2  0  0  0  0
  2  7  1  0  0  0  0
  2 10  1  0  0  0  0
  3  8  1  0  0  0  0
  3 13  1  0  0  0  0
  4  8  1  0  0  0  0
  4 14  2  0  0  0  0
  5 20  1  0  0  0  0
  6  7  1  0  0  0  0
  6  8  2  0  0  0  0
  6  9  1  0  0  0  0
  7 11  2  0  0  0  0
  9 13  2  0  0  0  0
 10 12  1  0  0  0  0
 11 14  1  0  0  0  0
 12 15  1  0  0  0  0
 12 16  1  0  0  0  0
 15 18  1  0  0  0  0
 16 19  1  0  0  0  0
 17 18  1  0  0  0  0
 17 19  1  0  0  0  0
 17 20  1  0  0  0  0
 20 21  1  0  0  0  0
M  END
> <Value>
5.899998417198648

> <Relation>
<

> <SourceURI>
mol:CHEMBL2002992

$$$$

Generated by Molecular Materials Informatics

 25 27  0  0  0  0  0  0  0  0999 V2000
   -4.8449   -1.1808    0.0000 C   0  0  0  0  0  0  0  0  0  0  0  0
   -6.1438   -0.4308    0.0000 C   0  0  0  0  0  0  0  0  0  0  0  0
   -6.1438    1.0692    0.0000 C   0  0  0  0  0  0  0  0  0  0  0  0
   -4.8449    1.8191    0.0000 C   0  0  0  0  0  0  0  0  0  0  0  0
   -3.5459    1.0692    0.0000 C   0  0  0  0  0  0  0  0  0  0  0  0
   -2.2468    1.8191    0.0000 C   0  0  0  0  0  0  0  0  0  0  0  0
   -0.9480    1.0692    0.0000 C   0  0  0  0  0  0  0  0  0  0  0  0
   -0.9480   -0.4308    0.0000 C   0  0  0  0  0  0  0  0  0  0  0  0
   -2.2468   -1.1808    0.0000 C   0  0  0  0  0  0  0  0  0  0  0  0
   -3.5459   -0.4308    0.0000 C   0  0  0  0  0  0  0  0  0  0  0  0
   -7.4428   -1.1808    0.0000 C   0  0  0  0  0  0  0  0  0  0  0  0
   -7.4428   -2.6807    0.0000 O   0  0  0  0  0  0  0  0  0  0  0  0
   -8.7419   -0.4308    0.0000 O   0  0  0  0  0  0  0  0  0  0  0  0
    0.3511    1.8191    0.0000 N   0  0  0  0  0  0  0  0  0  0  0  0
    1.6502    1.0692    0.0000 C   0  0  0  0  0  0  0  0  0  0  0  0
    1.6502   -0.4308    0.0000 O   0  0  0  0  0  0  0  0  0  0  0  0
    2.9492    1.8191    0.0000 N   0  0  0  0  0  0  0  0  0  0  0  0
    4.2481    1.0692    0.0000 C   0  0  0  0  0  0  0  0  0  0  0  0
    5.5471    1.8191    0.0000 C   0  0  0  0  0  0  0  0  0  0  0  0
    4.2481   -0.4308    0.0000 N   0  0  0  0  0  0  0  0  0  0  0  0
    6.8462    1.0692    0.0000 N   0  0  0  0  0  0  0  0  0  0  0  0
    6.8462   -0.4308    0.0000 C   0  0  0  0  0  0  0  0  0  0  0  0
    5.5471   -1.1808    0.0000 C   0  0  0  0  0  0  0  0  0  0  0  0
    8.1450   -1.1808    0.0000 C   0  0  0  0  0  0  0  0  0  0  0  0
    9.4441   -1.9308    0.0000 N   0  0  0  0  0  0  0  0  0  0  0  0
  1  2  1  0  0  0  0
  2  3  2  0  0  0  0
  3  4  1  0  0  0  0
  4  5  2  0  0  0  0
  5  6  1  0  0  0  0
  6  7  2  0  0  0  0
  7  8  1  0  0  0  0
  8  9  2  0  0  0  0
  9 10  1  0  0  0  0
  1 10  2  0  0  0  0
  5 10  1  0  0  0  0
  2 11  1  0  0  0  0
 11 12  2  0  0  0  0
 11 13  1  0  0  0  0
 14 15  1  0  0  0  0
 15 16  2  0  0  0  0
 15 17  1  0  0  0  0
 18 19  1  0  0  0  0
 18 20  2  0  0  0  0
 19 21  2  0  0  0  0
 21 22  1  0  0  0  0
 22 23  2  0  0  0  0
 20 23  1  0  0  0  0
 24 25  3  0  0  0  0
 22 24  1  0  0  0  0
 17 18  1  0  0  0  0
  7 14  1  0  0  0  0
M  END
> <Value>
5.899998417198648

> <Relation>
<

> <SourceURI>
mol:CHEMBL560813

$$$$

Generated by Molecular Materials Informatics

 27 28  0  0  0  0  0  0  0  0999 V2000
   -3.7671    0.1688    0.0000 O   0  0  0  0  0  0  0  0  0  0  0  0
    2.7279    2.4187    0.0000 O   0  0  0  0  0  0  0  0  0  0  0  0
    0.1300    3.9187    0.0000 O   0  0  0  0  0  0  0  0  0  0  0  0
    1.4289   -4.3312    0.0000 O   0  0  0  0  0  0  0  0  0  0  0  0
   -2.4682   -2.0812    0.0000 N   0  0  0  0  0  0  0  0  0  0  0  0
    2.7279   -2.0812    0.0000 N   0  0  0  0  0  0  0  0  0  0  0  0
    0.1300   -0.5812    0.0000 C   0  0  0  0  0  0  0  0  0  0  0  0
   -1.1691    0.1688    0.0000 C   0  0  0  0  0  0  0  0  0  0  0  0
    0.1300   -2.0812    0.0000 C   0  0  0  0  0  0  0  0  0  0  0  0
   -2.4682   -0.5812    0.0000 C   0  0  0  0  0  0  0  0  0  0  0  0
   -1.1691   -2.8312    0.0000 C   0  0  0  0  0  0  0  0  0  0  0  0
    1.4289    0.1688    0.0000 C   0  0  0  0  0  0  0  0  0  0  0  0
   -1.1691    1.6687    0.0000 C   0  0  0  0  0  0  0  0  0  0  0  0
    1.4289    1.6687    0.0000 C   0  0  0  0  0  0  0  0  0  0  0  0
    0.1300    2.4187    0.0000 C   0  0  0  0  0  0  0  0  0  0  0  0
    1.4289   -2.8312    0.0000 C   0  0  0  0  0  0  0  0  0  0  0  0
   -3.7671   -2.8312    0.0000 C   0  0  0  0  0  0  0  0  0  0  0  0
   -3.7671   -4.3312    0.0000 C   0  0  0  0  0  0  0  0  0  0  0  0
   -5.0662   -2.0812    0.0000 C   0  0  0  0  0  0  0  0  0  0  0  0
    4.0270   -2.8312    0.0000 C   0  0  0  0  0  0  0  0  0  0  0  0
    2.7279    3.9187    0.0000 C   0  0  0  0  0  0  0  0  0  0  0  0
    1.4289    4.6687    0.0000 C   0  0  0  0  0  0  0  0  0  0  0  0
   -5.0662   -5.0813    0.0000 C   0  0  0  0  0  0  0  0  0  0  0  0
   -5.0662   -0.5812    0.0000 C   0  0  0  0  0  0  0  0  0  0  0  0
    5.3261   -2.0812    0.0000 C   0  0  0  0  0  0  0  0  0  0  0  0
    6.6250   -2.8312    0.0000 C   0  0  0  0  0  0  0  0  0  0  0  0
    7.9241   -2.0812    0.0000 C   0  0  0  0  0  0  0  0  0  0  0  0
  1 10  2  0  0  0  0
  2 14  1  0  0  0  0
  2 21  1  0  0  0  0
  3 15  1  0  0  0  0
  3 22  1  0  0  0  0
  4 16  2  0  0  0  0
  5 10  1  0  0  0  0
  5 11  1  0  0  0  0
  5 17  1  0  0  0  0
  6 16  1  0  0  0  0
  6 20  1  0  0  0  0
  7  8  1  0  0  0  0
  7  9  1  0  0  0  0
  7 12  2  0  0  0  0
  8 10  1  0  0  0  0
  8 13  2  0  0  0  0
  9 11  2  0  0  0  0
  9 16  1  0  0  0  0
 12 14  1  0  0  0  0
 13 15  1  0  0  0  0
 14 15  2  0  0  0  0
 17 18  1  0  0  0  0
 17 19  1  0  0  0  0
 18 23  1  0  0  0  0
 19 24  1  0  0  0  0
 20 25  1  0  0  0  0
 25 26  1  0  0  0  0
 26 27  1  0  0  0  0
M  END
> <Value>
5.300000202445418

> <Relation>
<

> <SourceURI>
mol:CHEMBL1982700

$$$$

Generated by Molecular Materials Informatics

 35 40  0  0  0  0  0  0  0  0999 V2000
   -3.4665    5.5845    0.0000 O   0  0  0  0  0  0  0  0  0  0  0  0
    0.3949   -0.3194    0.0000 N   0  0  0  0  0  0  0  0  0  0  0  0
    3.1206   -0.6059    0.0000 N   0  0  0  0  0  0  0  0  0  0  0  0
    4.4195    1.6441    0.0000 N   0  0  0  0  0  0  0  0  0  0  0  0
    3.1206    3.8941    0.0000 N   0  0  0  0  0  0  0  0  0  0  0  0
   -2.6549   -5.5019    0.0000 N   0  0  0  0  0  0  0  0  0  0  0  0
    1.8215    1.6441    0.0000 C   0  0  0  0  0  0  0  0  0  0  0  0
    0.3949    2.1075    0.0000 C   0  0  0  0  0  0  0  0  0  0  0  0
    1.8215    0.1441    0.0000 C   0  0  0  0  0  0  0  0  0  0  0  0
   -0.4867    0.8941    0.0000 C   0  0  0  0  0  0  0  0  0  0  0  0
   -0.0687   -1.7461    0.0000 C   0  0  0  0  0  0  0  0  0  0  0  0
   -0.0687    3.5343    0.0000 C   0  0  0  0  0  0  0  0  0  0  0  0
    3.1206    2.3941    0.0000 C   0  0  0  0  0  0  0  0  0  0  0  0
    0.6124   -3.0825    0.0000 C   0  0  0  0  0  0  0  0  0  0  0  0
   -1.4051   -2.4270    0.0000 C   0  0  0  0  0  0  0  0  0  0  0  0
   -0.7242   -3.7636    0.0000 C   0  0  0  0  0  0  0  0  0  0  0  0
   -1.9867    0.8941    0.0000 C   0  0  0  0  0  0  0  0  0  0  0  0
   -1.5358    3.8461    0.0000 C   0  0  0  0  0  0  0  0  0  0  0  0
    4.4195    0.1441    0.0000 C   0  0  0  0  0  0  0  0  0  0  0  0
    0.9351    4.6490    0.0000 C   0  0  0  0  0  0  0  0  0  0  0  0
   -1.9994    5.2726    0.0000 C   0  0  0  0  0  0  0  0  0  0  0  0
   -1.1876   -5.1901    0.0000 C   0  0  0  0  0  0  0  0  0  0  0  0
    0.4715    6.0756    0.0000 C   0  0  0  0  0  0  0  0  0  0  0  0
   -0.9956    6.3874    0.0000 C   0  0  0  0  0  0  0  0  0  0  0  0
   -3.2651   -6.8723    0.0000 C   0  0  0  0  0  0  0  0  0  0  0  0
   -3.7696   -4.4983    0.0000 C   0  0  0  0  0  0  0  0  0  0  0  0
   -4.4703    4.4697    0.0000 C   0  0  0  0  0  0  0  0  0  0  0  0
   -4.7567   -6.7156    0.0000 C   0  0  0  0  0  0  0  0  0  0  0  0
   -5.0687   -5.2483    0.0000 C   0  0  0  0  0  0  0  0  0  0  0  0
   -5.9374    4.7817    0.0000 C   0  0  0  0  0  0  0  0  0  0  0  0
   -6.9413    3.6670    0.0000 C   0  0  0  0  0  0  0  0  0  0  0  0
   -6.4011    6.2083    0.0000 C   0  0  0  0  0  0  0  0  0  0  0  0
   -8.4085    3.9788    0.0000 C   0  0  0  0  0  0  0  0  0  0  0  0
   -7.8684    6.5201    0.0000 C   0  0  0  0  0  0  0  0  0  0  0  0
   -8.8720    5.4054    0.0000 C   0  0  0  0  0  0  0  0  0  0  0  0
  1 21  1  0  0  0  0
  1 27  1  0  0  0  0
  2  9  1  0  0  0  0
  2 10  1  0  0  0  0
  2 11  1  0  0  0  0
  3  9  2  0  0  0  0
  3 19  1  0  0  0  0
  4 13  1  0  0  0  0
  4 19  2  0  0  0  0
  5 13  1  0  0  0  0
  6 22  1  0  0  0  0
  6 25  1  0  0  0  0
  6 26  1  0  0  0  0
  7  8  1  0  0  0  0
  7  9  1  0  0  0  0
  7 13  2  0  0  0  0
  8 10  2  0  0  0  0
  8 12  1  0  0  0  0
 10 17  1  0  0  0  0
 11 14  1  0  0  0  0
 11 15  1  0  0  0  0
 12 18  1  0  0  0  0
 12 20  2  0  0  0  0
 14 16  1  0  0  0  0
 15 16  1  0  0  0  0
 16 22  1  0  0  0  0
 18 21  2  0  0  0  0
 20 23  1  0  0  0  0
 21 24  1  0  0  0  0
 23 24  2  0  0  0  0
 25 28  1  0  0  0  0
 26 29  1  0  0  0  0
 27 30  1  0  0  0  0
 28 29  1  0  0  0  0
 30 31  2  0  0  0  0
 30 32  1  0  0  0  0
 31 33  1  0  0  0  0
 32 34  2  0  0  0  0
 33 35  2  0  0  0  0
 34 35  1  0  0  0  0
M  END
> <Value>
5.899998417198648

> <Relation>
<

> <SourceURI>
mol:CHEMBL1968791

$$$$

Generated by Molecular Materials Informatics

 35 38  0  0  0  0  0  0  0  0999 V2000
   -0.4881   -5.6045    0.0000 O   0  0  0  0  0  0  0  0  0  0  0  0
    2.1100   -4.1045    0.0000 O   0  0  0  0  0  0  0  0  0  0  0  0
   -5.7038    2.3742    0.0000 O   0  0  0  0  0  0  0  0  0  0  0  0
   -3.7862    5.8488    0.0000 O   0  0  0  0  0  0  0  0  0  0  0  0
   -4.4563   -3.4943    0.0000 N   0  0  0  0  0  0  0  0  0  0  0  0
   -5.4599   -4.6090    0.0000 N   0  0  0  0  0  0  0  0  0  0  0  0
   -1.7870   -3.3545    0.0000 N   0  0  0  0  0  0  0  0  0  0  0  0
   -6.3276    5.3087    0.0000 N   0  0  0  0  0  0  0  0  0  0  0  0
   -3.0860   -4.1045    0.0000 C   0  0  0  0  0  0  0  0  0  0  0  0
   -4.7100   -5.9081    0.0000 C   0  0  0  0  0  0  0  0  0  0  0  0
   -3.2427   -5.5963    0.0000 C   0  0  0  0  0  0  0  0  0  0  0  0
   -4.7681   -2.0273    0.0000 C   0  0  0  0  0  0  0  0  0  0  0  0
   -5.3201   -7.2784    0.0000 C   0  0  0  0  0  0  0  0  0  0  0  0
    0.8110   -1.8546    0.0000 C   0  0  0  0  0  0  0  0  0  0  0  0
   -0.4881   -4.1045    0.0000 C   0  0  0  0  0  0  0  0  0  0  0  0
    0.8110   -3.3545    0.0000 C   0  0  0  0  0  0  0  0  0  0  0  0
    2.1100   -1.1046    0.0000 C   0  0  0  0  0  0  0  0  0  0  0  0
    2.1100    0.3954    0.0000 C   0  0  0  0  0  0  0  0  0  0  0  0
   -6.1946   -1.5637    0.0000 C   0  0  0  0  0  0  0  0  0  0  0  0
   -3.6534   -1.0235    0.0000 C   0  0  0  0  0  0  0  0  0  0  0  0
   -0.4881   -1.1046    0.0000 C   0  0  0  0  0  0  0  0  0  0  0  0
   -5.3919    0.9072    0.0000 C   0  0  0  0  0  0  0  0  0  0  0  0
    3.4089   -1.8546    0.0000 C   0  0  0  0  0  0  0  0  0  0  0  0
   -6.5066   -0.0966    0.0000 C   0  0  0  0  0  0  0  0  0  0  0  0
   -3.9653    0.4435    0.0000 C   0  0  0  0  0  0  0  0  0  0  0  0
    0.8110    1.1453    0.0000 C   0  0  0  0  0  0  0  0  0  0  0  0
   -5.9301   -8.6487    0.0000 C   0  0  0  0  0  0  0  0  0  0  0  0
   -3.9498   -7.8884    0.0000 C   0  0  0  0  0  0  0  0  0  0  0  0
   -6.6905   -6.6683    0.0000 C   0  0  0  0  0  0  0  0  0  0  0  0
   -0.4881    0.3954    0.0000 C   0  0  0  0  0  0  0  0  0  0  0  0
    3.4089    1.1453    0.0000 C   0  0  0  0  0  0  0  0  0  0  0  0
    4.7080   -1.1046    0.0000 C   0  0  0  0  0  0  0  0  0  0  0  0
    4.7080    0.3954    0.0000 C   0  0  0  0  0  0  0  0  0  0  0  0
   -4.5891    3.3780    0.0000 C   0  0  0  0  0  0  0  0  0  0  0  0
   -4.9009    4.8451    0.0000 C   0  0  0  0  0  0  0  0  0  0  0  0
  1 15  2  0  0  0  0
  2 16  2  0  0  0  0
  3 22  1  0  0  0  0
  3 34  1  0  0  0  0
  4 35  2  0  0  0  0
  5  6  1  0  0  0  0
  5  9  1  0  0  0  0
  5 12  1  0  0  0  0
  6 10  2  0  0  0  0
  7  9  1  0  0  0  0
  7 15  1  0  0  0  0
  8 35  1  0  0  0  0
  9 11  2  0  0  0  0
 10 11  1  0  0  0  0
 10 13  1  0  0  0  0
 12 19  2  0  0  0  0
 12 20  1  0  0  0  0
 13 27  1  0  0  0  0
 13 28  1  0  0  0  0
 13 29  1  0  0  0  0
 14 16  1  0  0  0  0
 14 17  1  0  0  0  0
 14 21  2  0  0  0  0
 15 16  1  0  0  0  0
 17 18  1  0  0  0  0
 17 23  2  0  0  0  0
 18 26  1  0  0  0  0
 18 31  2  0  0  0  0
 19 24  1  0  0  0  0
 20 25  2  0  0  0  0
 21 30  1  0  0  0  0
 22 24  2  0  0  0  0
 22 25  1  0  0  0  0
 23 32  1  0  0  0  0
 26 30  2  0  0  0  0
 31 33  1  0  0  0  0
 32 33  2  0  0  0  0
 34 35  1  0  0  0  0
M  END
> <Value>
5.300000202445418

> <Relation>
<

> <SourceURI>
mol:CHEMBL1977634

$$$$

Generated by Molecular Materials Informatics

 30 33  0  0  0  0  0  0  0  0999 V2000
    3.5770    1.8812    0.0000 O   0  0  0  0  0  0  0  0  0  0  0  0
   -0.2965   -5.2919    0.0000 O   0  0  0  0  0  0  0  0  0  0  0  0
    2.7541  -12.1436    0.0000 O   0  0  0  0  0  0  0  0  0  0  0  0
    2.8270   -1.9270    0.0000 N   0  0  0  0  0  0  0  0  0  0  0  0
    0.1870   -2.3452    0.0000 N   0  0  0  0  0  0  0  0  0  0  0  0
    4.0406   -2.8087    0.0000 N   0  0  0  0  0  0  0  0  0  0  0  0
    3.5770   -4.2352    0.0000 N   0  0  0  0  0  0  0  0  0  0  0  0
    4.0406    0.4546    0.0000 N   0  0  0  0  0  0  0  0  0  0  0  0
    2.0770    1.8812    0.0000 N   0  0  0  0  0  0  0  0  0  0  0  0
    1.8054   -6.8192    0.0000 N   0  0  0  0  0  0  0  0  0  0  0  0
    0.1870   -0.0088    0.0000 N   0  0  0  0  0  0  0  0  0  0  0  0
    0.9237   -8.0327    0.0000 N   0  0  0  0  0  0  0  0  0  0  0  0
    1.6135   -2.8087    0.0000 C   0  0  0  0  0  0  0  0  0  0  0  0
    2.0770   -4.2352    0.0000 C   0  0  0  0  0  0  0  0  0  0  0  0
    2.8270   -0.4270    0.0000 C   0  0  0  0  0  0  0  0  0  0  0  0
    1.1954   -5.4488    0.0000 C   0  0  0  0  0  0  0  0  0  0  0  0
    1.6135    0.4546    0.0000 C   0  0  0  0  0  0  0  0  0  0  0  0
   -1.0266   -3.2268    0.0000 C   0  0  0  0  0  0  0  0  0  0  0  0
   -0.2766   -0.9187    0.0000 C   0  0  0  0  0  0  0  0  0  0  0  0
   -2.2401   -2.3452    0.0000 C   0  0  0  0  0  0  0  0  0  0  0  0
   -1.7766   -0.9187    0.0000 C   0  0  0  0  0  0  0  0  0  0  0  0
    0.6523  -10.6165    0.0000 C   0  0  0  0  0  0  0  0  0  0  0  0
    1.5339   -9.4030    0.0000 C   0  0  0  0  0  0  0  0  0  0  0  0
    1.2623  -11.9868    0.0000 C   0  0  0  0  0  0  0  0  0  0  0  0
   -0.8396  -10.4598    0.0000 C   0  0  0  0  0  0  0  0  0  0  0  0
    0.3806  -13.2003    0.0000 C   0  0  0  0  0  0  0  0  0  0  0  0
   -1.7212  -11.6732    0.0000 C   0  0  0  0  0  0  0  0  0  0  0  0
   -1.1112  -13.0436    0.0000 C   0  0  0  0  0  0  0  0  0  0  0  0
    3.3643  -13.5139    0.0000 C   0  0  0  0  0  0  0  0  0  0  0  0
    4.8559  -13.6707    0.0000 C   0  0  0  0  0  0  0  0  0  0  0  0
  1  8  1  0  0  0  0
  1  9  1  0  0  0  0
  2 16  2  0  0  0  0
  3 24  1  0  0  0  0
  3 29  1  0  0  0  0
  4  6  1  0  0  0  0
  4 13  1  0  0  0  0
  4 15  1  0  0  0  0
  5 13  1  0  0  0  0
  5 18  1  0  0  0  0
  5 19  1  0  0  0  0
  6  7  2  0  0  0  0
  7 14  1  0  0  0  0
  8 15  2  0  0  0  0
  9 17  2  0  0  0  0
 12 10  1  0  0  0  0
 10 16  1  0  0  0  0
 11 17  1  0  0  0  0
 12 23  2  0  0  0  0
 13 14  2  0  0  0  0
 14 16  1  0  0  0  0
 15 17  1  0  0  0  0
 18 20  1  0  0  0  0
 19 21  1  0  0  0  0
 20 21  1  0  0  0  0
 22 23  1  0  0  0  0
 22 24  1  0  0  0  0
 22 25  2  0  0  0  0
 24 26  2  0  0  0  0
 25 27  1  0  0  0  0
 26 28  1  0  0  0  0
 27 28  2  0  0  0  0
 29 30  1  0  0  0  0
M  END
> <Value>
5.899998417198648

> <Relation>
<

> <SourceURI>
mol:CHEMBL1992732

$$$$

Generated by Molecular Materials Informatics

 28 32  0  0  0  0  0  0  0  0999 V2000
    9.0124   -1.9809    0.0000 F   0  0  0  0  0  0  0  0  0  0  0  0
   -0.7225   -3.1945    0.0000 O   0  0  0  0  0  0  0  0  0  0  0  0
    0.7042   -1.2309    0.0000 N   0  0  0  0  0  0  0  0  0  0  0  0
    2.1308   -3.1945    0.0000 N   0  0  0  0  0  0  0  0  0  0  0  0
    4.0615    0.9709    0.0000 N   0  0  0  0  0  0  0  0  0  0  0  0
    3.5213    3.5124    0.0000 N   0  0  0  0  0  0  0  0  0  0  0  0
    5.9922    2.7095    0.0000 N   0  0  0  0  0  0  0  0  0  0  0  0
    7.3828    6.9893    0.0000 N   0  0  0  0  0  0  0  0  0  0  0  0
    2.1308   -0.7674    0.0000 C   0  0  0  0  0  0  0  0  0  0  0  0
    3.0124   -1.9809    0.0000 C   0  0  0  0  0  0  0  0  0  0  0  0
    0.7042   -2.7309    0.0000 C   0  0  0  0  0  0  0  0  0  0  0  0
    2.5942    0.6591    0.0000 C   0  0  0  0  0  0  0  0  0  0  0  0
    4.5124   -1.9809    0.0000 C   0  0  0  0  0  0  0  0  0  0  0  0
   -0.7225   -0.7674    0.0000 C   0  0  0  0  0  0  0  0  0  0  0  0
   -1.6041   -1.9809    0.0000 C   0  0  0  0  0  0  0  0  0  0  0  0
    1.5906    1.7738    0.0000 C   0  0  0  0  0  0  0  0  0  0  0  0
    4.5250    2.3977    0.0000 C   0  0  0  0  0  0  0  0  0  0  0  0
    5.2624   -0.6820    0.0000 C   0  0  0  0  0  0  0  0  0  0  0  0
    5.2624   -3.2800    0.0000 C   0  0  0  0  0  0  0  0  0  0  0  0
    2.0541    3.2004    0.0000 C   0  0  0  0  0  0  0  0  0  0  0  0
    6.7624   -0.6820    0.0000 C   0  0  0  0  0  0  0  0  0  0  0  0
    6.7624   -3.2800    0.0000 C   0  0  0  0  0  0  0  0  0  0  0  0
    7.5124   -1.9809    0.0000 C   0  0  0  0  0  0  0  0  0  0  0  0
    6.4557    4.1360    0.0000 C   0  0  0  0  0  0  0  0  0  0  0  0
    7.9230    4.4478    0.0000 C   0  0  0  0  0  0  0  0  0  0  0  0
    5.4521    5.2507    0.0000 C   0  0  0  0  0  0  0  0  0  0  0  0
    8.3866    5.8746    0.0000 C   0  0  0  0  0  0  0  0  0  0  0  0
    5.9157    6.6773    0.0000 C   0  0  0  0  0  0  0  0  0  0  0  0
  1 23  1  0  0  0  0
  2 11  1  0  0  0  0
  2 15  1  0  0  0  0
  3  9  1  0  0  0  0
  3 11  1  0  0  0  0
  3 14  1  0  0  0  0
  4 10  1  0  0  0  0
  4 11  2  0  0  0  0
  5 12  1  0  0  0  0
  5 17  2  0  0  0  0
  6 17  1  0  0  0  0
  6 20  2  0  0  0  0
  7 17  1  0  0  0  0
  7 24  1  0  0  0  0
  8 27  1  0  0  0  0
  8 28  1  0  0  0  0
  9 10  2  0  0  0  0
  9 12  1  0  0  0  0
 10 13  1  0  0  0  0
 12 16  2  0  0  0  0
 13 18  2  0  0  0  0
 13 19  1  0  0  0  0
 14 15  2  0  0  0  0
 16 20  1  0  0  0  0
 18 21  1  0  0  0  0
 19 22  2  0  0  0  0
 21 23  2  0  0  0  0
 22 23  1  0  0  0  0
 24 25  1  0  0  0  0
 24 26  1  0  0  0  0
 25 27  1  0  0  0  0
 26 28  1  0  0  0  0
M  END
> <Value>
5.899998417198648

> <Relation>
<

> <SourceURI>
mol:CHEMBL1971186

$$$$

Generated by Molecular Materials Informatics

 19 21  0  0  0  0  0  0  0  0999 V2000
   -7.2443   -5.1201    0.0000 Cl  0  0  0  0  0  0  0  0  0  0  0  0
   -1.9155   -1.3312    0.0000 O   0  0  0  0  0  0  0  0  0  0  0  0
    0.1372    0.5061    0.0000 N   0  0  0  0  0  0  0  0  0  0  0  0
    1.0188    1.7195    0.0000 N   0  0  0  0  0  0  0  0  0  0  0  0
    0.5554   -2.1341    0.0000 N   0  0  0  0  0  0  0  0  0  0  0  0
    2.4454   -0.2439    0.0000 C   0  0  0  0  0  0  0  0  0  0  0  0
    1.0188   -0.7076    0.0000 C   0  0  0  0  0  0  0  0  0  0  0  0
    2.4454    1.2561    0.0000 C   0  0  0  0  0  0  0  0  0  0  0  0
    3.8719   -0.7076    0.0000 C   0  0  0  0  0  0  0  0  0  0  0  0
    3.8719    1.7195    0.0000 C   0  0  0  0  0  0  0  0  0  0  0  0
   -0.9119   -2.4459    0.0000 C   0  0  0  0  0  0  0  0  0  0  0  0
    4.7538    0.5061    0.0000 C   0  0  0  0  0  0  0  0  0  0  0  0
   -2.8426   -4.1845    0.0000 C   0  0  0  0  0  0  0  0  0  0  0  0
   -1.3753   -3.8725    0.0000 C   0  0  0  0  0  0  0  0  0  0  0  0
   -3.3063   -5.6110    0.0000 C   0  0  0  0  0  0  0  0  0  0  0  0
   -3.8464   -3.0697    0.0000 C   0  0  0  0  0  0  0  0  0  0  0  0
   -5.7772   -4.8081    0.0000 C   0  0  0  0  0  0  0  0  0  0  0  0
   -4.7733   -5.9228    0.0000 C   0  0  0  0  0  0  0  0  0  0  0  0
   -5.3135   -3.3816    0.0000 C   0  0  0  0  0  0  0  0  0  0  0  0
  1 17  1  0  0  0  0
  2 11  2  0  0  0  0
  3  4  1  0  0  0  0
  3  7  1  0  0  0  0
  4  8  2  0  0  0  0
  5  7  1  0  0  0  0
  5 11  1  0  0  0  0
  6  7  2  0  0  0  0
  6  8  1  0  0  0  0
  6  9  1  0  0  0  0
  8 10  1  0  0  0  0
  9 12  1  0  0  0  0
 10 12  1  0  0  0  0
 11 14  1  0  0  0  0
 13 14  1  0  0  0  0
 13 15  2  0  0  0  0
 13 16  1  0  0  0  0
 15 18  1  0  0  0  0
 16 19  2  0  0  0  0
 17 18  2  0  0  0  0
 17 19  1  0  0  0  0
M  END
> <Value>
5.899998417198648

> <Relation>
<

> <SourceURI>
mol:CHEMBL2003482

$$$$

Generated by Molecular Materials Informatics

 28 31  0  0  0  0  0  0  0  0999 V2000
   -6.1226    3.8431    0.0000 Cl  0  0  0  0  0  0  0  0  0  0  0  0
   -1.7210    2.9077    0.0000 N   0  0  0  0  0  0  0  0  0  0  0  0
   -2.2611   -2.0607    0.0000 N   0  0  0  0  0  0  0  0  0  0  0  0
    0.4645   -2.3473    0.0000 N   0  0  0  0  0  0  0  0  0  0  0  0
   -3.6517    4.6460    0.0000 N   0  0  0  0  0  0  0  0  0  0  0  0
   -1.1808    5.4489    0.0000 N   0  0  0  0  0  0  0  0  0  0  0  0
    4.6881    4.2015    0.0000 N   0  0  0  0  0  0  0  0  0  0  0  0
   -2.2611    0.3662    0.0000 C   0  0  0  0  0  0  0  0  0  0  0  0
   -0.8346   -0.0973    0.0000 C   0  0  0  0  0  0  0  0  0  0  0  0
   -2.7248    1.7929    0.0000 C   0  0  0  0  0  0  0  0  0  0  0  0
   -0.8346   -1.5973    0.0000 C   0  0  0  0  0  0  0  0  0  0  0  0
   -3.1428   -0.8473    0.0000 C   0  0  0  0  0  0  0  0  0  0  0  0
   -2.1846    4.3342    0.0000 C   0  0  0  0  0  0  0  0  0  0  0  0
   -4.1919    2.1047    0.0000 C   0  0  0  0  0  0  0  0  0  0  0  0
    0.4645    0.6527    0.0000 C   0  0  0  0  0  0  0  0  0  0  0  0
   -4.6555    3.5313    0.0000 C   0  0  0  0  0  0  0  0  0  0  0  0
    1.7634   -0.0973    0.0000 C   0  0  0  0  0  0  0  0  0  0  0  0
    0.2863    5.1369    0.0000 C   0  0  0  0  0  0  0  0  0  0  0  0
    1.7634   -1.5973    0.0000 C   0  0  0  0  0  0  0  0  0  0  0  0
    1.2901    6.2517    0.0000 C   0  0  0  0  0  0  0  0  0  0  0  0
    0.7500    3.7104    0.0000 C   0  0  0  0  0  0  0  0  0  0  0  0
    3.2209    4.5133    0.0000 C   0  0  0  0  0  0  0  0  0  0  0  0
    2.7572    5.9398    0.0000 C   0  0  0  0  0  0  0  0  0  0  0  0
    2.2171    3.3986    0.0000 C   0  0  0  0  0  0  0  0  0  0  0  0
    5.6918    5.3162    0.0000 C   0  0  0  0  0  0  0  0  0  0  0  0
    7.1591    5.0042    0.0000 C   0  0  0  0  0  0  0  0  0  0  0  0
    8.1627    6.1189    0.0000 C   0  0  0  0  0  0  0  0  0  0  0  0
    7.6225    3.5777    0.0000 C   0  0  0  0  0  0  0  0  0  0  0  0
  1 16  1  0  0  0  0
  2 10  2  0  0  0  0
  2 13  1  0  0  0  0
  3 11  1  0  0  0  0
  3 12  1  0  0  0  0
  4 11  2  0  0  0  0
  4 19  1  0  0  0  0
  5 13  2  0  0  0  0
  5 16  1  0  0  0  0
  6 13  1  0  0  0  0
  6 18  1  0  0  0  0
  7 22  1  0  0  0  0
  7 25  1  0  0  0  0
  8  9  1  0  0  0  0
  8 10  1  0  0  0  0
  8 12  2  0  0  0  0
  9 11  1  0  0  0  0
  9 15  2  0  0  0  0
 10 14  1  0  0  0  0
 14 16  2  0  0  0  0
 15 17  1  0  0  0  0
 17 19  2  0  0  0  0
 18 20  1  0  0  0  0
 18 21  1  0  0  0  0
 20 23  1  0  0  0  0
 21 24  1  0  0  0  0
 22 23  1  0  0  0  0
 22 24  1  0  0  0  0
 25 26  1  0  0  0  0
 26 27  1  0  0  0  0
 26 28  1  0  0  0  0
M  END
> <Value>
6.499996931948306

> <Relation>
=

> <SourceURI>
mol:CHEMBL2006456

$$$$

Generated by Molecular Materials Informatics

 35 39  0  0  0  0  0  0  0  0999 V2000
    0.2588    3.5423    0.0000 S   0  0  0  0  0  0  0  0  0  0  0  0
   -4.0663   -3.7882    0.0000 O   0  0  0  0  0  0  0  0  0  0  0  0
    4.2835    1.5787    0.0000 N   0  0  0  0  0  0  0  0  0  0  0  0
    2.9844   -0.6713    0.0000 N   0  0  0  0  0  0  0  0  0  0  0  0
   -1.5954   -4.5911    0.0000 N   0  0  0  0  0  0  0  0  0  0  0  0
   -3.5261   -6.3295    0.0000 N   0  0  0  0  0  0  0  0  0  0  0  0
    4.2835    9.0787    0.0000 N   0  0  0  0  0  0  0  0  0  0  0  0
    1.6853    1.5787    0.0000 C   0  0  0  0  0  0  0  0  0  0  0  0
    1.6853    3.0787    0.0000 C   0  0  0  0  0  0  0  0  0  0  0  0
    0.2588    1.1152    0.0000 C   0  0  0  0  0  0  0  0  0  0  0  0
    2.9844    0.8287    0.0000 C   0  0  0  0  0  0  0  0  0  0  0  0
    2.9844    3.8287    0.0000 C   0  0  0  0  0  0  0  0  0  0  0  0
   -0.2047   -0.3113    0.0000 C   0  0  0  0  0  0  0  0  0  0  0  0
   -0.6229    2.3287    0.0000 C   0  0  0  0  0  0  0  0  0  0  0  0
    4.2835    3.0787    0.0000 C   0  0  0  0  0  0  0  0  0  0  0  0
    0.7989   -1.4260    0.0000 C   0  0  0  0  0  0  0  0  0  0  0  0
   -1.6720   -0.6231    0.0000 C   0  0  0  0  0  0  0  0  0  0  0  0
    2.9844    5.3287    0.0000 C   0  0  0  0  0  0  0  0  0  0  0  0
   -1.1318   -3.1646    0.0000 C   0  0  0  0  0  0  0  0  0  0  0  0
    0.3353   -2.8526    0.0000 C   0  0  0  0  0  0  0  0  0  0  0  0
   -2.1356   -2.0499    0.0000 C   0  0  0  0  0  0  0  0  0  0  0  0
    2.9844    6.8287    0.0000 C   0  0  0  0  0  0  0  0  0  0  0  0
   -3.0625   -4.9029    0.0000 C   0  0  0  0  0  0  0  0  0  0  0  0
    2.9844    8.3287    0.0000 C   0  0  0  0  0  0  0  0  0  0  0  0
   -4.9932   -6.6415    0.0000 C   0  0  0  0  0  0  0  0  0  0  0  0
   -5.4569   -8.0680    0.0000 C   0  0  0  0  0  0  0  0  0  0  0  0
   -5.9971   -5.5268    0.0000 C   0  0  0  0  0  0  0  0  0  0  0  0
   -6.9241   -8.3799    0.0000 C   0  0  0  0  0  0  0  0  0  0  0  0
    4.4402   10.5705    0.0000 C   0  0  0  0  0  0  0  0  0  0  0  0
    5.6537    8.4687    0.0000 C   0  0  0  0  0  0  0  0  0  0  0  0
   -7.4643   -5.8386    0.0000 C   0  0  0  0  0  0  0  0  0  0  0  0
   -7.9278   -7.2651    0.0000 C   0  0  0  0  0  0  0  0  0  0  0  0
    5.9075   10.8825    0.0000 C   0  0  0  0  0  0  0  0  0  0  0  0
    6.6575    9.5834    0.0000 C   0  0  0  0  0  0  0  0  0  0  0  0
   -7.3876   -9.8064    0.0000 C   0  0  0  0  0  0  0  0  0  0  0  0
  1  9  1  0  0  0  0
  1 14  1  0  0  0  0
  2 23  2  0  0  0  0
  3 11  1  0  0  0  0
  3 15  2  0  0  0  0
  4 11  1  0  0  0  0
  5 19  1  0  0  0  0
  5 23  1  0  0  0  0
  6 23  1  0  0  0  0
  6 25  1  0  0  0  0
  7 24  1  0  0  0  0
  7 29  1  0  0  0  0
  7 30  1  0  0  0  0
  8  9  1  0  0  0  0
  8 10  1  0  0  0  0
  8 11  2  0  0  0  0
  9 12  2  0  0  0  0
 10 13  1  0  0  0  0
 10 14  2  0  0  0  0
 12 15  1  0  0  0  0
 12 18  1  0  0  0  0
 13 16  2  0  0  0  0
 13 17  1  0  0  0  0
 16 20  1  0  0  0  0
 17 21  2  0  0  0  0
 18 22  3  0  0  0  0
 19 20  2  0  0  0  0
 19 21  1  0  0  0  0
 22 24  1  0  0  0  0
 25 26  2  0  0  0  0
 25 27  1  0  0  0  0
 26 28  1  0  0  0  0
 27 31  2  0  0  0  0
 28 32  2  0  0  0  0
 28 35  1  0  0  0  0
 29 33  1  0  0  0  0
 30 34  1  0  0  0  0
 31 32  1  0  0  0  0
 33 34  1  0  0  0  0
M  END
> <Value>
5.899998417198648

> <Relation>
<

> <SourceURI>
mol:CHEMBL1973211

$$$$

Generated by Molecular Materials Informatics

 25 28  0  0  0  0  0  0  0  0999 V2000
    5.8536   -7.0802    0.0000 C   0  0  0  0  0  0  0  0  0  0  0  0
    7.1561   -6.3288    0.0000 N   0  0  0  0  0  0  0  0  0  0  0  0
    7.1510   -4.8187    0.0000 N   0  0  0  0  0  0  0  0  0  0  0  0
    5.8503   -4.0747    0.0000 C   0  0  0  0  0  0  0  0  0  0  0  0
    4.5539   -6.3297    0.0000 C   0  0  0  0  0  0  0  0  0  0  0  0
    4.5581   -4.8286    0.0000 C   0  0  0  0  0  0  0  0  0  0  0  0
    3.2622   -4.0776    0.0000 C   0  0  0  0  0  0  0  0  0  0  0  0
    1.9613   -4.8258    0.0000 C   0  0  0  0  0  0  0  0  0  0  0  0
    1.9644   -6.3326    0.0000 C   0  0  0  0  0  0  0  0  0  0  0  0
    3.2613   -7.0766    0.0000 C   0  0  0  0  0  0  0  0  0  0  0  0
    5.8439   -2.5747    0.0000 N   0  0  0  0  0  0  0  0  0  0  0  0
    7.1398   -1.8192    0.0000 C   0  0  0  0  0  0  0  0  0  0  0  0
    8.4410   -2.5663    0.0000 C   0  0  0  0  0  0  0  0  0  0  0  0
    9.7360   -1.8120    0.0000 C   0  0  0  0  0  0  0  0  0  0  0  0
    9.7303   -0.3103    0.0000 C   0  0  0  0  0  0  0  0  0  0  0  0
    8.4189    0.4337    0.0000 C   0  0  0  0  0  0  0  0  0  0  0  0
    7.1294   -0.3249    0.0000 C   0  0  0  0  0  0  0  0  0  0  0  0
   11.0251    0.4470    0.0000 Cl  0  0  0  0  0  0  0  0  0  0  0  0
    5.8532   -8.5803    0.0000 C   0  0  0  0  0  0  0  0  0  0  0  0
    7.1521   -9.3306    0.0000 C   0  0  0  0  0  0  0  0  0  0  0  0
    7.1441  -10.8274    0.0000 C   0  0  0  0  0  0  0  0  0  0  0  0
    8.4414  -11.5776    0.0000 C   0  0  0  0  0  0  0  0  0  0  0  0
    9.7425  -10.8277    0.0000 N   0  0  0  0  0  0  0  0  0  0  0  0
    9.7380   -9.3201    0.0000 C   0  0  0  0  0  0  0  0  0  0  0  0
    8.4396   -8.5766    0.0000 C   0  0  0  0  0  0  0  0  0  0  0  0
 11 12  1  0  0  0  0
  5  6  1  0  0  0  0
 12 13  2  0  0  0  0
  2  3  1  0  0  0  0
 13 14  1  0  0  0  0
  6  7  2  0  0  0  0
 14 15  2  0  0  0  0
 15 16  1  0  0  0  0
  7  8  1  0  0  0  0
 16 17  2  0  0  0  0
 17 12  1  0  0  0  0
  3  4  2  0  0  0  0
 15 18  1  0  0  0  0
  8  9  2  0  0  0  0
  1 19  1  0  0  0  0
  4  6  1  0  0  0  0
 19 20  1  0  0  0  0
  9 10  1  0  0  0  0
 20 21  2  0  0  0  0
 10  5  2  0  0  0  0
 21 22  1  0  0  0  0
  1  2  2  0  0  0  0
 22 23  2  0  0  0  0
  4 11  1  0  0  0  0
 23 24  1  0  0  0  0
  5  1  1  0  0  0  0
 24 25  2  0  0  0  0
 25 20  1  0  0  0  0
M  END
> <Value>
5.499999678657065

> <Relation>
<

> <SourceURI>
mol:CHEMBL101253

$$$$

Generated by Molecular Materials Informatics

 36 41  0  0  0  0  0  0  0  0999 V2000
   -3.4665    5.9401    0.0000 O   0  0  0  0  0  0  0  0  0  0  0  0
    0.3949    0.0363    0.0000 N   0  0  0  0  0  0  0  0  0  0  0  0
    3.1206   -0.2503    0.0000 N   0  0  0  0  0  0  0  0  0  0  0  0
    4.4195    1.9997    0.0000 N   0  0  0  0  0  0  0  0  0  0  0  0
    3.1206    4.2497    0.0000 N   0  0  0  0  0  0  0  0  0  0  0  0
   -1.4592   -5.6701    0.0000 N   0  0  0  0  0  0  0  0  0  0  0  0
    1.8215    1.9997    0.0000 C   0  0  0  0  0  0  0  0  0  0  0  0
    0.3949    2.4632    0.0000 C   0  0  0  0  0  0  0  0  0  0  0  0
    1.8215    0.4997    0.0000 C   0  0  0  0  0  0  0  0  0  0  0  0
   -0.4867    1.2497    0.0000 C   0  0  0  0  0  0  0  0  0  0  0  0
   -0.0687    3.8899    0.0000 C   0  0  0  0  0  0  0  0  0  0  0  0
   -0.0687   -1.3905    0.0000 C   0  0  0  0  0  0  0  0  0  0  0  0
    3.1206    2.7497    0.0000 C   0  0  0  0  0  0  0  0  0  0  0  0
   -1.5358    4.2017    0.0000 C   0  0  0  0  0  0  0  0  0  0  0  0
   -1.9867    1.2497    0.0000 C   0  0  0  0  0  0  0  0  0  0  0  0
    4.4195    0.4997    0.0000 C   0  0  0  0  0  0  0  0  0  0  0  0
    0.9351   -2.5052    0.0000 C   0  0  0  0  0  0  0  0  0  0  0  0
   -1.5358   -1.7023    0.0000 C   0  0  0  0  0  0  0  0  0  0  0  0
    0.9351    5.0046    0.0000 C   0  0  0  0  0  0  0  0  0  0  0  0
   -1.9994    5.6283    0.0000 C   0  0  0  0  0  0  0  0  0  0  0  0
   -0.9956   -4.2436    0.0000 C   0  0  0  0  0  0  0  0  0  0  0  0
    0.4715   -3.9318    0.0000 C   0  0  0  0  0  0  0  0  0  0  0  0
   -1.9994   -3.1288    0.0000 C   0  0  0  0  0  0  0  0  0  0  0  0
    0.4715    6.4312    0.0000 C   0  0  0  0  0  0  0  0  0  0  0  0
   -0.9956    6.7430    0.0000 C   0  0  0  0  0  0  0  0  0  0  0  0
   -0.5776   -6.8838    0.0000 C   0  0  0  0  0  0  0  0  0  0  0  0
   -2.8858   -6.1338    0.0000 C   0  0  0  0  0  0  0  0  0  0  0  0
   -4.4703    4.8254    0.0000 C   0  0  0  0  0  0  0  0  0  0  0  0
   -1.4592   -8.0972    0.0000 C   0  0  0  0  0  0  0  0  0  0  0  0
   -2.8858   -7.6338    0.0000 C   0  0  0  0  0  0  0  0  0  0  0  0
   -5.9374    5.1374    0.0000 C   0  0  0  0  0  0  0  0  0  0  0  0
   -6.9413    4.0226    0.0000 C   0  0  0  0  0  0  0  0  0  0  0  0
   -6.4011    6.5639    0.0000 C   0  0  0  0  0  0  0  0  0  0  0  0
   -8.4085    4.3344    0.0000 C   0  0  0  0  0  0  0  0  0  0  0  0
   -7.8684    6.8757    0.0000 C   0  0  0  0  0  0  0  0  0  0  0  0
   -8.8720    5.7610    0.0000 C   0  0  0  0  0  0  0  0  0  0  0  0
  1 20  1  0  0  0  0
  1 28  1  0  0  0  0
  2  9  1  0  0  0  0
  2 10  1  0  0  0  0
  2 12  1  0  0  0  0
  3  9  2  0  0  0  0
  3 16  1  0  0  0  0
  4 13  1  0  0  0  0
  4 16  2  0  0  0  0
  5 13  1  0  0  0  0
  6 21  1  0  0  0  0
  6 26  1  0  0  0  0
  6 27  1  0  0  0  0
  7  8  1  0  0  0  0
  7  9  1  0  0  0  0
  7 13  2  0  0  0  0
  8 10  2  0  0  0  0
  8 11  1  0  0  0  0
 10 15  1  0  0  0  0
 11 14  1  0  0  0  0
 11 19  2  0  0  0  0
 12 17  1  0  0  0  0
 12 18  1  0  0  0  0
 14 20  2  0  0  0  0
 17 22  1  0  0  0  0
 18 23  1  0  0  0  0
 19 24  1  0  0  0  0
 20 25  1  0  0  0  0
 21 22  1  0  0  0  0
 21 23  1  0  0  0  0
 24 25  2  0  0  0  0
 26 29  1  0  0  0  0
 27 30  1  0  0  0  0
 28 31  1  0  0  0  0
 29 30  1  0  0  0  0
 31 32  2  0  0  0  0
 31 33  1  0  0  0  0
 32 34  1  0  0  0  0
 33 35  2  0  0  0  0
 34 36  2  0  0  0  0
 35 36  1  0  0  0  0
M  END
> <Value>
5.899998417198648

> <Relation>
<

> <SourceURI>
mol:CHEMBL2007151

$$$$

Generated by Molecular Materials Informatics

 28 30  0  0  0  0  0  0  0  0999 V2000
    1.8188   -6.5811    0.0000 F   0  0  0  0  0  0  0  0  0  0  0  0
    3.1177    0.1687    0.0000 O   0  0  0  0  0  0  0  0  0  0  0  0
    8.3137    6.1686    0.0000 O   0  0  0  0  0  0  0  0  0  0  0  0
    5.7158    0.1687    0.0000 N   0  0  0  0  0  0  0  0  0  0  0  0
    4.4167   -9.5810    0.0000 N   0  0  0  0  0  0  0  0  0  0  0  0
    4.4167   -5.0811    0.0000 C   0  0  0  0  0  0  0  0  0  0  0  0
    4.4167   -6.5811    0.0000 C   0  0  0  0  0  0  0  0  0  0  0  0
    4.4167   -2.0812    0.0000 C   0  0  0  0  0  0  0  0  0  0  0  0
    4.4167   -0.5812    0.0000 C   0  0  0  0  0  0  0  0  0  0  0  0
    3.1177   -7.3310    0.0000 C   0  0  0  0  0  0  0  0  0  0  0  0
    3.1177   -4.3311    0.0000 C   0  0  0  0  0  0  0  0  0  0  0  0
    5.7158   -4.3311    0.0000 C   0  0  0  0  0  0  0  0  0  0  0  0
    7.0147    2.4187    0.0000 C   0  0  0  0  0  0  0  0  0  0  0  0
    5.7158    1.6687    0.0000 C   0  0  0  0  0  0  0  0  0  0  0  0
    3.1177   -2.8312    0.0000 C   0  0  0  0  0  0  0  0  0  0  0  0
    5.7158   -2.8312    0.0000 C   0  0  0  0  0  0  0  0  0  0  0  0
    5.7158   -7.3310    0.0000 C   0  0  0  0  0  0  0  0  0  0  0  0
    7.0147    3.9186    0.0000 C   0  0  0  0  0  0  0  0  0  0  0  0
    8.3137    4.6686    0.0000 C   0  0  0  0  0  0  0  0  0  0  0  0
    3.1177   -8.8310    0.0000 C   0  0  0  0  0  0  0  0  0  0  0  0
    8.3137    1.6687    0.0000 C   0  0  0  0  0  0  0  0  0  0  0  0
    5.7158   -8.8310    0.0000 C   0  0  0  0  0  0  0  0  0  0  0  0
    9.6128    3.9186    0.0000 C   0  0  0  0  0  0  0  0  0  0  0  0
    9.6128    2.4187    0.0000 C   0  0  0  0  0  0  0  0  0  0  0  0
    4.4167    2.4187    0.0000 C   0  0  0  0  0  0  0  0  0  0  0  0
    7.0147    6.9185    0.0000 C   0  0  0  0  0  0  0  0  0  0  0  0
    7.0147    8.4185    0.0000 C   0  0  0  0  0  0  0  0  0  0  0  0
    5.7158    9.1685    0.0000 C   0  0  0  0  0  0  0  0  0  0  0  0
  1 10  1  0  0  0  0
  2  9  2  0  0  0  0
  3 19  1  0  0  0  0
  3 26  1  0  0  0  0
  4  9  1  0  0  0  0
  4 14  1  0  0  0  0
  5 20  1  0  0  0  0
  5 22  2  0  0  0  0
  6  7  1  0  0  0  0
  6 11  2  0  0  0  0
  6 12  1  0  0  0  0
  7 10  1  0  0  0  0
  7 17  2  0  0  0  0
  8  9  1  0  0  0  0
  8 15  2  0  0  0  0
  8 16  1  0  0  0  0
 10 20  2  0  0  0  0
 11 15  1  0  0  0  0
 12 16  2  0  0  0  0
 13 14  1  0  0  0  0
 13 18  2  0  0  0  0
 13 21  1  0  0  0  0
 14 25  1  0  0  0  0
 17 22  1  0  0  0  0
 18 19  1  0  0  0  0
 19 23  2  0  0  0  0
 21 24  2  0  0  0  0
 23 24  1  0  0  0  0
 26 27  1  0  0  0  0
 27 28  1  0  0  0  0
M  END
> <Value>
5.300000202445418

> <Relation>
<

> <SourceURI>
mol:CHEMBL1971606

$$$$

Generated by Molecular Materials Informatics

 35 39  0  0  0  0  0  0  0  0999 V2000
   -1.4007   -3.4971    0.0000 O   0  0  0  0  0  0  0  0  0  0  0  0
   -8.2732   -3.6299    0.0000 O   0  0  0  0  0  0  0  0  0  0  0  0
    2.4608    2.4069    0.0000 N   0  0  0  0  0  0  0  0  0  0  0  0
   -1.3241   -7.4650    0.0000 N   0  0  0  0  0  0  0  0  0  0  0  0
   -9.6640   -7.9097    0.0000 N   0  0  0  0  0  0  0  0  0  0  0  0
   -0.4738   -0.6439    0.0000 N   0  0  0  0  0  0  0  0  0  0  0  0
   -7.7332   -6.1711    0.0000 C   0  0  0  0  0  0  0  0  0  0  0  0
   -5.2623   -6.9740    0.0000 C   0  0  0  0  0  0  0  0  0  0  0  0
    3.8873    0.4434    0.0000 C   0  0  0  0  0  0  0  0  0  0  0  0
   -3.7950   -6.6620    0.0000 C   0  0  0  0  0  0  0  0  0  0  0  0
    2.4608   -0.0202    0.0000 C   0  0  0  0  0  0  0  0  0  0  0  0
   -8.7369   -5.0564    0.0000 C   0  0  0  0  0  0  0  0  0  0  0  0
    3.8873    1.9434    0.0000 C   0  0  0  0  0  0  0  0  0  0  0  0
   -6.2660   -5.8593    0.0000 C   0  0  0  0  0  0  0  0  0  0  0  0
   -8.1967   -7.5977    0.0000 C   0  0  0  0  0  0  0  0  0  0  0  0
   -5.7258   -8.4006    0.0000 C   0  0  0  0  0  0  0  0  0  0  0  0
  -10.2041   -5.3682    0.0000 C   0  0  0  0  0  0  0  0  0  0  0  0
   -7.1930   -8.7124    0.0000 C   0  0  0  0  0  0  0  0  0  0  0  0
   -3.3314   -5.2355    0.0000 C   0  0  0  0  0  0  0  0  0  0  0  0
    1.5791    1.1934    0.0000 C   0  0  0  0  0  0  0  0  0  0  0  0
   -1.8643   -4.9237    0.0000 C   0  0  0  0  0  0  0  0  0  0  0  0
    1.9973   -1.4468    0.0000 C   0  0  0  0  0  0  0  0  0  0  0  0
    5.1864   -0.3066    0.0000 C   0  0  0  0  0  0  0  0  0  0  0  0
   -2.7912   -7.7768    0.0000 C   0  0  0  0  0  0  0  0  0  0  0  0
    5.1864    2.6934    0.0000 C   0  0  0  0  0  0  0  0  0  0  0  0
    0.5300   -1.7586    0.0000 C   0  0  0  0  0  0  0  0  0  0  0  0
   -0.8605   -6.0384    0.0000 C   0  0  0  0  0  0  0  0  0  0  0  0
    6.4855    0.4434    0.0000 C   0  0  0  0  0  0  0  0  0  0  0  0
  -10.6676   -6.7950    0.0000 C   0  0  0  0  0  0  0  0  0  0  0  0
  -11.2078   -4.2535    0.0000 C   0  0  0  0  0  0  0  0  0  0  0  0
    6.4855    1.9434    0.0000 C   0  0  0  0  0  0  0  0  0  0  0  0
    0.0664   -3.1853    0.0000 C   0  0  0  0  0  0  0  0  0  0  0  0
  -12.1349   -7.1068    0.0000 C   0  0  0  0  0  0  0  0  0  0  0  0
  -12.6750   -4.5655    0.0000 C   0  0  0  0  0  0  0  0  0  0  0  0
  -13.1385   -5.9920    0.0000 C   0  0  0  0  0  0  0  0  0  0  0  0
  1 21  1  0  0  0  0
  1 32  1  0  0  0  0
  2 12  2  0  0  0  0
  3 13  1  0  0  0  0
  3 20  1  0  0  0  0
  4 24  2  0  0  0  0
  4 27  1  0  0  0  0
  5 15  1  0  0  0  0
  6 26  1  0  0  0  0
  7 12  1  0  0  0  0
  7 14  2  0  0  0  0
  7 15  1  0  0  0  0
  8 10  1  0  0  0  0
  8 14  1  0  0  0  0
  8 16  2  0  0  0  0
  9 11  1  0  0  0  0
  9 13  1  0  0  0  0
  9 23  2  0  0  0  0
 10 19  2  0  0  0  0
 10 24  1  0  0  0  0
 11 20  2  0  0  0  0
 11 22  1  0  0  0  0
 12 17  1  0  0  0  0
 13 25  2  0  0  0  0
 15 18  2  0  0  0  0
 16 18  1  0  0  0  0
 17 29  2  0  0  0  0
 17 30  1  0  0  0  0
 19 21  1  0  0  0  0
 21 27  2  0  0  0  0
 22 26  1  0  0  0  0
 23 28  1  0  0  0  0
 25 31  1  0  0  0  0
 26 32  1  0  0  0  0
 28 31  2  0  0  0  0
 29 33  1  0  0  0  0
 30 34  2  0  0  0  0
 33 35  2  0  0  0  0
 34 35  1  0  0  0  0
M  END
> <Value>
5.899998417198648

> <Relation>
<

> <SourceURI>
mol:CHEMBL1972125

$$$$

Generated by Molecular Materials Informatics

 37 41  0  0  0  0  0  0  0  0999 V2000
   10.0086   -3.2138    0.0000 C   0  0  0  0  0  0  0  0  0  0  0  0
   11.2806   -2.4506    0.0000 N   0  0  0  0  0  0  0  0  0  0  0  0
    2.2105   -3.2927    0.0000 C   0  0  0  0  0  0  0  0  0  0  0  0
    7.4122   -3.2401    0.0000 C   0  0  0  0  0  0  0  0  0  0  0  0
    8.7016   -2.4769    0.0000 N   0  0  0  0  0  0  0  0  0  0  0  0
    3.4999   -2.5295    0.0000 N   0  0  0  0  0  0  0  0  0  0  0  0
   12.5789   -3.1698    0.0000 C   0  0  0  0  0  0  0  0  0  0  0  0
   -4.2895   -1.0997    0.0000 N   0  0  0  0  0  0  0  0  0  0  0  0
    6.1052   -2.5032    0.0000 C   0  0  0  0  0  0  0  0  0  0  0  0
   -6.8948   -2.5559    0.0000 N   0  0  0  0  0  0  0  0  0  0  0  0
   10.0174   -4.7138    0.0000 N   0  0  0  0  0  0  0  0  0  0  0  0
    0.9122   -2.5559    0.0000 C   0  0  0  0  0  0  0  0  0  0  0  0
    4.8157   -3.2664    0.0000 C   0  0  0  0  0  0  0  0  0  0  0  0
   13.8684   -2.3891    0.0000 C   0  0  0  0  0  0  0  0  0  0  0  0
    7.4210   -4.7401    0.0000 C   0  0  0  0  0  0  0  0  0  0  0  0
    2.2279   -4.7839    0.0000 O   0  0  0  0  0  0  0  0  0  0  0  0
   15.1138   -0.1260    0.0000 N   0  0  0  0  0  0  0  0  0  0  0  0
   -3.0001   -0.3453    0.0000 C   0  0  0  0  0  0  0  0  0  0  0  0
    0.9122   -1.0559    0.0000 C   0  0  0  0  0  0  0  0  0  0  0  0
   -0.3773   -3.3102    0.0000 C   0  0  0  0  0  0  0  0  0  0  0  0
    6.1052   -5.5032    0.0000 C   0  0  0  0  0  0  0  0  0  0  0  0
   -4.3158   -2.6085    0.0000 C   0  0  0  0  0  0  0  0  0  0  0  0
   -5.5527   -0.3453    0.0000 C   0  0  0  0  0  0  0  0  0  0  0  0
   -5.6142   -3.3190    0.0000 C   0  0  0  0  0  0  0  0  0  0  0  0
   -6.8773   -1.0559    0.0000 C   0  0  0  0  0  0  0  0  0  0  0  0
   12.6138   -4.6698    0.0000 C   0  0  0  0  0  0  0  0  0  0  0  0
   11.3244   -5.4418    0.0000 C   0  0  0  0  0  0  0  0  0  0  0  0
   -1.6843   -1.0822    0.0000 C   0  0  0  0  0  0  0  0  0  0  0  0
    4.8157   -4.7664    0.0000 C   0  0  0  0  0  0  0  0  0  0  0  0
   -0.4211   -0.3190    0.0000 C   0  0  0  0  0  0  0  0  0  0  0  0
   -1.6668   -2.5822    0.0000 C   0  0  0  0  0  0  0  0  0  0  0  0
   13.8420   -0.9066    0.0000 C   0  0  0  0  0  0  0  0  0  0  0  0
   -8.2194   -3.2664    0.0000 C   0  0  0  0  0  0  0  0  0  0  0  0
   15.1753   -3.1260    0.0000 C   0  0  0  0  0  0  0  0  0  0  0  0
   16.4385   -0.8540    0.0000 C   0  0  0  0  0  0  0  0  0  0  0  0
    8.7105   -5.4944    0.0000 C   0  0  0  0  0  0  0  0  0  0  0  0
   16.4736   -2.3540    0.0000 C   0  0  0  0  0  0  0  0  0  0  0  0
  2  1  1  0  0  0  0
  3  6  1  0  0  0  0
  4  5  1  0  0  0  0
  5  1  1  0  0  0  0
  6 13  1  0  0  0  0
  7  2  2  0  0  0  0
  8 18  1  0  0  0  0
  9  4  1  0  0  0  0
 10 25  1  0  0  0  0
 11  1  2  0  0  0  0
 12  3  1  0  0  0  0
 13  9  2  0  0  0  0
 14  7  1  0  0  0  0
 15  4  2  0  0  0  0
 16  3  2  0  0  0  0
 17 32  2  0  0  0  0
 18 28  1  0  0  0  0
 19 12  2  0  0  0  0
 20 12  1  0  0  0  0
 21 15  1  0  0  0  0
 22  8  1  0  0  0  0
 23  8  1  0  0  0  0
 24 22  1  0  0  0  0
 25 23  1  0  0  0  0
 26  7  1  0  0  0  0
 27 11  1  0  0  0  0
 28 31  1  0  0  0  0
 29 21  2  0  0  0  0
 30 19  1  0  0  0  0
 31 20  2  0  0  0  0
 32 14  1  0  0  0  0
 33 10  1  0  0  0  0
 34 14  2  0  0  0  0
 35 37  2  0  0  0  0
 36 15  1  0  0  0  0
 37 34  1  0  0  0  0
 27 26  2  0  0  0  0
 29 13  1  0  0  0  0
 17 35  1  0  0  0  0
 28 30  2  0  0  0  0
 24 10  1  0  0  0  0
M  END
> <Value>
5.40000018605658

> <Relation>
<

> <SourceURI>
mol:CHEMBL941

$$$$

Generated by Molecular Materials Informatics

 18 21  0  0  0  0  0  0  0  0999 V2000
    0.7473   -5.5444    0.0000 N   0  0  0  0  0  0  0  0  0  0  0  0
    4.9561    1.1724    0.0000 N   0  0  0  0  0  0  0  0  0  0  0  0
   -1.9782   -5.2581    0.0000 N   0  0  0  0  0  0  0  0  0  0  0  0
    6.4479    1.3293    0.0000 N   0  0  0  0  0  0  0  0  0  0  0  0
    3.3452   -2.5445    0.0000 C   0  0  0  0  0  0  0  0  0  0  0  0
    2.0464   -3.2945    0.0000 C   0  0  0  0  0  0  0  0  0  0  0  0
    4.6443   -0.2946    0.0000 C   0  0  0  0  0  0  0  0  0  0  0  0
   -0.5517   -3.2945    0.0000 C   0  0  0  0  0  0  0  0  0  0  0  0
    5.9433   -1.0446    0.0000 C   0  0  0  0  0  0  0  0  0  0  0  0
   -0.5517   -4.7945    0.0000 C   0  0  0  0  0  0  0  0  0  0  0  0
    3.3452   -1.0446    0.0000 C   0  0  0  0  0  0  0  0  0  0  0  0
    0.7473   -2.5445    0.0000 C   0  0  0  0  0  0  0  0  0  0  0  0
    4.6443   -3.2945    0.0000 C   0  0  0  0  0  0  0  0  0  0  0  0
    2.0464   -4.7945    0.0000 C   0  0  0  0  0  0  0  0  0  0  0  0
    5.9433   -2.5445    0.0000 C   0  0  0  0  0  0  0  0  0  0  0  0
   -1.9782   -2.8311    0.0000 C   0  0  0  0  0  0  0  0  0  0  0  0
    7.0580   -0.0410    0.0000 C   0  0  0  0  0  0  0  0  0  0  0  0
   -2.8598   -4.0445    0.0000 C   0  0  0  0  0  0  0  0  0  0  0  0
  1 10  2  0  0  0  0
  1 14  1  0  0  0  0
  2  4  1  0  0  0  0
  2  7  1  0  0  0  0
  3 10  1  0  0  0  0
  3 18  1  0  0  0  0
  4 17  2  0  0  0  0
  5  6  1  0  0  0  0
  5 11  1  0  0  0  0
  5 13  2  0  0  0  0
  6 12  1  0  0  0  0
  6 14  2  0  0  0  0
  7  9  1  0  0  0  0
  7 11  2  0  0  0  0
  8 10  1  0  0  0  0
  8 12  2  0  0  0  0
  8 16  1  0  0  0  0
  9 15  2  0  0  0  0
  9 17  1  0  0  0  0
 13 15  1  0  0  0  0
 16 18  2  0  0  0  0
M  END
> <Value>
5.899998417198648

> <Relation>
<

> <SourceURI>
mol:CHEMBL1976134

$$$$

Generated by Molecular Materials Informatics

 28 32  0  0  0  0  0  0  0  0999 V2000
    4.9525   -0.0017    0.0000 N   0  0  0  0  0  0  0  0  0  0  0  0
    2.7354   -0.9888    0.0000 N   0  0  0  0  0  0  0  0  0  0  0  0
    4.2025   -1.3008    0.0000 N   0  0  0  0  0  0  0  0  0  0  0  0
   -2.7452    3.2165    0.0000 N   0  0  0  0  0  0  0  0  0  0  0  0
   -3.6268    2.0029    0.0000 N   0  0  0  0  0  0  0  0  0  0  0  0
   -3.2086   -0.6371    0.0000 N   0  0  0  0  0  0  0  0  0  0  0  0
    2.5785    0.5029    0.0000 C   0  0  0  0  0  0  0  0  0  0  0  0
    3.9488    1.1131    0.0000 C   0  0  0  0  0  0  0  0  0  0  0  0
    1.2796    1.2529    0.0000 C   0  0  0  0  0  0  0  0  0  0  0  0
   -1.3186    1.2529    0.0000 C   0  0  0  0  0  0  0  0  0  0  0  0
    4.2607    2.5803    0.0000 C   0  0  0  0  0  0  0  0  0  0  0  0
   -1.3186    2.7529    0.0000 C   0  0  0  0  0  0  0  0  0  0  0  0
   -0.0195    0.5029    0.0000 C   0  0  0  0  0  0  0  0  0  0  0  0
    1.2796    2.7529    0.0000 C   0  0  0  0  0  0  0  0  0  0  0  0
   -2.7452    0.7894    0.0000 C   0  0  0  0  0  0  0  0  0  0  0  0
   -0.0195    3.5029    0.0000 C   0  0  0  0  0  0  0  0  0  0  0  0
    6.4443    0.1551    0.0000 C   0  0  0  0  0  0  0  0  0  0  0  0
    3.1459    3.5840    0.0000 C   0  0  0  0  0  0  0  0  0  0  0  0
    5.6874    3.0438    0.0000 C   0  0  0  0  0  0  0  0  0  0  0  0
    7.3259   -1.0584    0.0000 C   0  0  0  0  0  0  0  0  0  0  0  0
    3.4579    5.0513    0.0000 C   0  0  0  0  0  0  0  0  0  0  0  0
    5.9992    4.5111    0.0000 C   0  0  0  0  0  0  0  0  0  0  0  0
    8.8178   -0.9017    0.0000 C   0  0  0  0  0  0  0  0  0  0  0  0
    6.7159   -2.4288    0.0000 C   0  0  0  0  0  0  0  0  0  0  0  0
    4.8845    5.5147    0.0000 C   0  0  0  0  0  0  0  0  0  0  0  0
    9.6994   -2.1151    0.0000 C   0  0  0  0  0  0  0  0  0  0  0  0
    7.5976   -3.6422    0.0000 C   0  0  0  0  0  0  0  0  0  0  0  0
    9.0894   -3.4855    0.0000 C   0  0  0  0  0  0  0  0  0  0  0  0
  1  3  1  0  0  0  0
  1  8  1  0  0  0  0
  1 17  1  0  0  0  0
  2  3  2  0  0  0  0
  2  7  1  0  0  0  0
  4  5  1  0  0  0  0
  4 12  1  0  0  0  0
  5 15  2  0  0  0  0
  6 15  1  0  0  0  0
  7  8  2  0  0  0  0
  7  9  1  0  0  0  0
  8 11  1  0  0  0  0
  9 13  1  0  0  0  0
  9 14  2  0  0  0  0
 10 12  1  0  0  0  0
 10 13  2  0  0  0  0
 10 15  1  0  0  0  0
 11 18  2  0  0  0  0
 11 19  1  0  0  0  0
 12 16  2  0  0  0  0
 14 16  1  0  0  0  0
 17 20  1  0  0  0  0
 18 21  1  0  0  0  0
 19 22  2  0  0  0  0
 20 23  2  0  0  0  0
 20 24  1  0  0  0  0
 21 25  2  0  0  0  0
 22 25  1  0  0  0  0
 23 26  1  0  0  0  0
 24 27  2  0  0  0  0
 26 28  2  0  0  0  0
 27 28  1  0  0  0  0
M  END
> <Value>
7.0

> <Relation>
=

> <SourceURI>
mol:CHEMBL1972158

$$$$

Generated by Molecular Materials Informatics

 28 30  0  0  0  0  0  0  0  0999 V2000
   -4.4364   -9.8813    0.0000 F   0  0  0  0  0  0  0  0  0  0  0  0
   -2.9364   -8.3813    0.0000 F   0  0  0  0  0  0  0  0  0  0  0  0
   -5.9364   -8.3813    0.0000 F   0  0  0  0  0  0  0  0  0  0  0  0
    7.2548    2.8688    0.0000 F   0  0  0  0  0  0  0  0  0  0  0  0
    5.9559    0.6188    0.0000 F   0  0  0  0  0  0  0  0  0  0  0  0
    4.6568    2.8688    0.0000 O   0  0  0  0  0  0  0  0  0  0  0  0
   -3.1373   -1.6312    0.0000 O   0  0  0  0  0  0  0  0  0  0  0  0
   -0.5393   -1.6312    0.0000 N   0  0  0  0  0  0  0  0  0  0  0  0
   -0.5393    2.8688    0.0000 N   0  0  0  0  0  0  0  0  0  0  0  0
   -3.1373   -6.1312    0.0000 N   0  0  0  0  0  0  0  0  0  0  0  0
   -1.8384   -3.8813    0.0000 N   0  0  0  0  0  0  0  0  0  0  0  0
    0.7597    0.6188    0.0000 C   0  0  0  0  0  0  0  0  0  0  0  0
    0.7597    2.1188    0.0000 C   0  0  0  0  0  0  0  0  0  0  0  0
   -0.5393   -0.1312    0.0000 C   0  0  0  0  0  0  0  0  0  0  0  0
   -4.4364   -6.8813    0.0000 C   0  0  0  0  0  0  0  0  0  0  0  0
   -4.4364   -8.3813    0.0000 C   0  0  0  0  0  0  0  0  0  0  0  0
    2.0587    2.8688    0.0000 C   0  0  0  0  0  0  0  0  0  0  0  0
    2.0587   -0.1312    0.0000 C   0  0  0  0  0  0  0  0  0  0  0  0
    3.3577    2.1188    0.0000 C   0  0  0  0  0  0  0  0  0  0  0  0
   -3.1373   -4.6313    0.0000 C   0  0  0  0  0  0  0  0  0  0  0  0
   -1.8384    0.6188    0.0000 C   0  0  0  0  0  0  0  0  0  0  0  0
   -1.8384   -2.3813    0.0000 C   0  0  0  0  0  0  0  0  0  0  0  0
    3.3577    0.6188    0.0000 C   0  0  0  0  0  0  0  0  0  0  0  0
   -1.8384    2.1188    0.0000 C   0  0  0  0  0  0  0  0  0  0  0  0
   -5.7355   -6.1312    0.0000 C   0  0  0  0  0  0  0  0  0  0  0  0
   -4.4364   -3.8813    0.0000 C   0  0  0  0  0  0  0  0  0  0  0  0
   -5.7355   -4.6313    0.0000 C   0  0  0  0  0  0  0  0  0  0  0  0
    5.9559    2.1188    0.0000 C   0  0  0  0  0  0  0  0  0  0  0  0
  1 16  1  0  0  0  0
  2 16  1  0  0  0  0
  3 16  1  0  0  0  0
  4 28  1  0  0  0  0
  5 28  1  0  0  0  0
  6 19  1  0  0  0  0
  6 28  1  0  0  0  0
  7 22  2  0  0  0  0
  8 14  1  0  0  0  0
  8 22  1  0  0  0  0
  9 13  1  0  0  0  0
  9 24  2  0  0  0  0
 10 15  2  0  0  0  0
 10 20  1  0  0  0  0
 11 20  1  0  0  0  0
 11 22  1  0  0  0  0
 12 13  1  0  0  0  0
 12 14  1  0  0  0  0
 12 18  2  0  0  0  0
 13 17  2  0  0  0  0
 14 21  2  0  0  0  0
 15 16  1  0  0  0  0
 15 25  1  0  0  0  0
 17 19  1  0  0  0  0
 18 23  1  0  0  0  0
 19 23  2  0  0  0  0
 20 26  2  0  0  0  0
 21 24  1  0  0  0  0
 25 27  2  0  0  0  0
 26 27  1  0  0  0  0
M  END
> <Value>
5.300000202445418

> <Relation>
<

> <SourceURI>
mol:CHEMBL1981215

$$$$

Generated by Molecular Materials Informatics

 19 21  0  0  0  0  0  0  0  0999 V2000
   -0.3444   -0.7029    0.0000 S   0  0  0  0  0  0  0  0  0  0  0  0
   -0.2170    6.5103    0.0000 F   0  0  0  0  0  0  0  0  0  0  0  0
   -3.4760   -0.7884    0.0000 O   0  0  0  0  0  0  0  0  0  0  0  0
   -3.4760    1.8095    0.0000 O   0  0  0  0  0  0  0  0  0  0  0  0
    3.6802   -0.2395    0.0000 N   0  0  0  0  0  0  0  0  0  0  0  0
    1.0821    1.2604    0.0000 C   0  0  0  0  0  0  0  0  0  0  0  0
    1.0821   -0.2395    0.0000 C   0  0  0  0  0  0  0  0  0  0  0  0
    2.3811    2.0104    0.0000 C   0  0  0  0  0  0  0  0  0  0  0  0
   -1.2260    0.5105    0.0000 C   0  0  0  0  0  0  0  0  0  0  0  0
   -0.3444    1.7241    0.0000 C   0  0  0  0  0  0  0  0  0  0  0  0
    2.3811    3.5104    0.0000 C   0  0  0  0  0  0  0  0  0  0  0  0
    2.3811   -0.9895    0.0000 C   0  0  0  0  0  0  0  0  0  0  0  0
    3.6802    1.2604    0.0000 C   0  0  0  0  0  0  0  0  0  0  0  0
   -2.7260    0.5105    0.0000 C   0  0  0  0  0  0  0  0  0  0  0  0
    1.0821    4.2604    0.0000 C   0  0  0  0  0  0  0  0  0  0  0  0
    3.6802    4.2604    0.0000 C   0  0  0  0  0  0  0  0  0  0  0  0
    1.0821    5.7603    0.0000 C   0  0  0  0  0  0  0  0  0  0  0  0
    3.6802    5.7603    0.0000 C   0  0  0  0  0  0  0  0  0  0  0  0
    2.3811    6.5103    0.0000 C   0  0  0  0  0  0  0  0  0  0  0  0
  1  7  1  0  0  0  0
  1  9  1  0  0  0  0
  2 17  1  0  0  0  0
  3 14  2  0  0  0  0
  4 14  1  0  0  0  0
  5 12  1  0  0  0  0
  5 13  2  0  0  0  0
  6  7  1  0  0  0  0
  6  8  2  0  0  0  0
  6 10  1  0  0  0  0
  7 12  2  0  0  0  0
  8 11  1  0  0  0  0
  8 13  1  0  0  0  0
  9 10  2  0  0  0  0
  9 14  1  0  0  0  0
 11 15  1  0  0  0  0
 11 16  2  0  0  0  0
 15 17  2  0  0  0  0
 16 18  1  0  0  0  0
 17 19  1  0  0  0  0
 18 19  2  0  0  0  0
M  END
> <Value>
6.799998134593398

> <Relation>
=

> <SourceURI>
mol:CHEMBL1974457

$$$$

Generated by Molecular Materials Informatics

 28 31  0  0  0  0  0  0  0  0999 V2000
   -6.6295  -13.6710    0.0000 N   0  0  0  0  0  0  0  0  0  0  0  0
   -5.3271  -12.9195    0.0000 C   0  0  0  0  0  0  0  0  0  0  0  0
   -5.3323  -11.4094    0.0000 N   0  0  0  0  0  0  0  0  0  0  0  0
   -6.6328  -10.6655    0.0000 C   0  0  0  0  0  0  0  0  0  0  0  0
   -7.9339  -12.9235    0.0000 C   0  0  0  0  0  0  0  0  0  0  0  0
   -7.9354  -11.4216    0.0000 C   0  0  0  0  0  0  0  0  0  0  0  0
   -9.3642  -10.9588    0.0000 S   0  0  0  0  0  0  0  0  0  0  0  0
  -10.2546  -12.1747    0.0000 C   0  0  0  0  0  0  0  0  0  0  0  0
   -9.3618  -13.3890    0.0000 C   0  0  0  0  0  0  0  0  0  0  0  0
   -6.6377   -9.1655    0.0000 N   0  0  0  0  0  0  0  0  0  0  0  0
   -5.3412   -8.4114    0.0000 C   0  0  0  0  0  0  0  0  0  0  0  0
   -4.0397   -9.1571    0.0000 C   0  0  0  0  0  0  0  0  0  0  0  0
   -2.7431   -8.4031    0.0000 C   0  0  0  0  0  0  0  0  0  0  0  0
   -1.3774   -9.0033    0.0000 S   0  0  0  0  0  0  0  0  0  0  0  0
   -0.3774   -7.8854    0.0000 C   0  0  0  0  0  0  0  0  0  0  0  0
   -1.1314   -6.5888    0.0000 N   0  0  0  0  0  0  0  0  0  0  0  0
   -2.5977   -6.9055    0.0000 C   0  0  0  0  0  0  0  0  0  0  0  0
    1.1151   -8.0374    0.0000 N   0  0  0  0  0  0  0  0  0  0  0  0
    1.9927   -6.8210    0.0000 C   0  0  0  0  0  0  0  0  0  0  0  0
    3.4850   -6.9730    0.0000 N   0  0  0  0  0  0  0  0  0  0  0  0
    1.3782   -5.4529    0.0000 O   0  0  0  0  0  0  0  0  0  0  0  0
    4.3627   -5.7566    0.0000 C   0  0  0  0  0  0  0  0  0  0  0  0
    5.8493   -5.9128    0.0000 C   0  0  0  0  0  0  0  0  0  0  0  0
    6.7268   -4.6980    0.0000 C   0  0  0  0  0  0  0  0  0  0  0  0
    6.1122   -3.3277    0.0000 C   0  0  0  0  0  0  0  0  0  0  0  0
    4.6120   -3.1797    0.0000 C   0  0  0  0  0  0  0  0  0  0  0  0
    3.7410   -4.3965    0.0000 C   0  0  0  0  0  0  0  0  0  0  0  0
    8.2189   -4.8507    0.0000 Cl  0  0  0  0  0  0  0  0  0  0  0  0
 13 14  1  0  0  0  0
  2  3  1  0  0  0  0
  3  4  2  0  0  0  0
  6  7  1  0  0  0  0
 14 15  1  0  0  0  0
 15 16  2  0  0  0  0
 16 17  1  0  0  0  0
 17 13  2  0  0  0  0
  7  8  1  0  0  0  0
 15 18  1  0  0  0  0
  8  9  2  0  0  0  0
 18 19  1  0  0  0  0
  9  5  1  0  0  0  0
 19 20  1  0  0  0  0
  4  6  1  0  0  0  0
 19 21  2  0  0  0  0
  4 10  1  0  0  0  0
 20 22  1  0  0  0  0
  5  6  2  0  0  0  0
 22 23  2  0  0  0  0
 10 11  1  0  0  0  0
 23 24  1  0  0  0  0
  1  2  2  0  0  0  0
 24 25  2  0  0  0  0
 11 12  1  0  0  0  0
 25 26  1  0  0  0  0
  5  1  1  0  0  0  0
 26 27  2  0  0  0  0
 27 22  1  0  0  0  0
 12 13  1  0  0  0  0
 24 28  1  0  0  0  0
M  END
> <Value>
5.40000018605658

> <Relation>
<

> <SourceURI>
mol:CHEMBL482767

$$$$

Generated by Molecular Materials Informatics

 38 41  0  0  0  0  0  0  0  0999 V2000
    1.9296    0.8443    0.0000 S   0  0  0  0  0  0  0  0  0  0  0  0
    0.5478   -3.7079    0.0000 O   0  0  0  0  0  0  0  0  0  0  0  0
    0.4000    9.2169    0.0000 O   0  0  0  0  0  0  0  0  0  0  0  0
   -2.3982   -0.3061    0.0000 N   0  0  0  0  0  0  0  0  0  0  0  0
   -2.8891    2.2452    0.0000 N   0  0  0  0  0  0  0  0  0  0  0  0
    2.5116   -2.0070    0.0000 N   0  0  0  0  0  0  0  0  0  0  0  0
   -1.9935    8.2064    0.0000 N   0  0  0  0  0  0  0  0  0  0  0  0
   -1.6720   10.7844    0.0000 N   0  0  0  0  0  0  0  0  0  0  0  0
    7.4215   -3.7079    0.0000 N   0  0  0  0  0  0  0  0  0  0  0  0
   -0.4342    1.3946    0.0000 C   0  0  0  0  0  0  0  0  0  0  0  0
    0.5478    0.2608    0.0000 C   0  0  0  0  0  0  0  0  0  0  0  0
    0.3407    2.6790    0.0000 C   0  0  0  0  0  0  0  0  0  0  0  0
    0.0567   -1.1566    0.0000 C   0  0  0  0  0  0  0  0  0  0  0  0
   -1.9073    1.1112    0.0000 C   0  0  0  0  0  0  0  0  0  0  0  0
   -0.2428    4.0608    0.0000 C   0  0  0  0  0  0  0  0  0  0  0  0
    1.8016    2.3388    0.0000 C   0  0  0  0  0  0  0  0  0  0  0  0
   -1.4162   -1.4401    0.0000 C   0  0  0  0  0  0  0  0  0  0  0  0
    1.0387   -2.2904    0.0000 C   0  0  0  0  0  0  0  0  0  0  0  0
   -1.7313    4.2464    0.0000 C   0  0  0  0  0  0  0  0  0  0  0  0
    0.6621    5.2571    0.0000 C   0  0  0  0  0  0  0  0  0  0  0  0
   -1.4098    6.8246    0.0000 C   0  0  0  0  0  0  0  0  0  0  0  0
   -2.3147    5.6282    0.0000 C   0  0  0  0  0  0  0  0  0  0  0  0
    0.0785    6.6389    0.0000 C   0  0  0  0  0  0  0  0  0  0  0  0
    3.4936   -3.1408    0.0000 C   0  0  0  0  0  0  0  0  0  0  0  0
   -1.0884    9.4025    0.0000 C   0  0  0  0  0  0  0  0  0  0  0  0
   -0.7671   11.9807    0.0000 C   0  0  0  0  0  0  0  0  0  0  0  0
    4.9666   -2.8573    0.0000 C   0  0  0  0  0  0  0  0  0  0  0  0
   -1.3506   13.3625    0.0000 C   0  0  0  0  0  0  0  0  0  0  0  0
    0.7214   11.7951    0.0000 C   0  0  0  0  0  0  0  0  0  0  0  0
   -0.4457   14.5587    0.0000 C   0  0  0  0  0  0  0  0  0  0  0  0
    5.9486   -3.9913    0.0000 C   0  0  0  0  0  0  0  0  0  0  0  0
    1.6263   12.9914    0.0000 C   0  0  0  0  0  0  0  0  0  0  0  0
    1.0429   14.3732    0.0000 C   0  0  0  0  0  0  0  0  0  0  0  0
   -1.0291   15.9407    0.0000 C   0  0  0  0  0  0  0  0  0  0  0  0
    8.4035   -4.8417    0.0000 C   0  0  0  0  0  0  0  0  0  0  0  0
    7.9124   -2.2904    0.0000 C   0  0  0  0  0  0  0  0  0  0  0  0
    9.8764   -4.5582    0.0000 C   0  0  0  0  0  0  0  0  0  0  0  0
    9.3855   -2.0070    0.0000 C   0  0  0  0  0  0  0  0  0  0  0  0
  1 11  1  0  0  0  0
  1 16  1  0  0  0  0
  2 18  2  0  0  0  0
  3 25  2  0  0  0  0
  4 14  2  0  0  0  0
  4 17  1  0  0  0  0
  5 14  1  0  0  0  0
  6 18  1  0  0  0  0
  6 24  1  0  0  0  0
  7 21  1  0  0  0  0
  7 25  1  0  0  0  0
  8 25  1  0  0  0  0
  8 26  1  0  0  0  0
  9 31  1  0  0  0  0
  9 35  1  0  0  0  0
  9 36  1  0  0  0  0
 10 11  2  0  0  0  0
 10 12  1  0  0  0  0
 10 14  1  0  0  0  0
 11 13  1  0  0  0  0
 12 15  1  0  0  0  0
 12 16  2  0  0  0  0
 13 17  2  0  0  0  0
 13 18  1  0  0  0  0
 15 19  2  0  0  0  0
 15 20  1  0  0  0  0
 19 22  1  0  0  0  0
 20 23  2  0  0  0  0
 21 22  2  0  0  0  0
 21 23  1  0  0  0  0
 24 27  1  0  0  0  0
 26 28  1  0  0  0  0
 26 29  2  0  0  0  0
 27 31  1  0  0  0  0
 28 30  2  0  0  0  0
 29 32  1  0  0  0  0
 30 33  1  0  0  0  0
 30 34  1  0  0  0  0
 32 33  2  0  0  0  0
 35 37  1  0  0  0  0
 36 38  1  0  0  0  0
M  END
> <Value>
5.40000018605658

> <Relation>
<

> <SourceURI>
mol:CHEMBL1999414

$$$$

Generated by Molecular Materials Informatics

 22 24  0  0  0  0  0  0  0  0999 V2000
    2.5980    3.3562    0.0000 F   0  0  0  0  0  0  0  0  0  0  0  0
    5.1961   -1.1438    0.0000 F   0  0  0  0  0  0  0  0  0  0  0  0
   -2.5980   -2.6437    0.0000 O   0  0  0  0  0  0  0  0  0  0  0  0
    0.0000    1.8562    0.0000 N   0  0  0  0  0  0  0  0  0  0  0  0
    0.0000   -2.6437    0.0000 N   0  0  0  0  0  0  0  0  0  0  0  0
   -1.2991   -4.8937    0.0000 N   0  0  0  0  0  0  0  0  0  0  0  0
   -3.8970   -4.8937    0.0000 N   0  0  0  0  0  0  0  0  0  0  0  0
   -3.8970   -7.8937    0.0000 N   0  0  0  0  0  0  0  0  0  0  0  0
    1.2991   -0.3938    0.0000 C   0  0  0  0  0  0  0  0  0  0  0  0
    1.2991    1.1062    0.0000 C   0  0  0  0  0  0  0  0  0  0  0  0
    0.0000   -1.1438    0.0000 C   0  0  0  0  0  0  0  0  0  0  0  0
    2.5980    1.8562    0.0000 C   0  0  0  0  0  0  0  0  0  0  0  0
    2.5980   -1.1438    0.0000 C   0  0  0  0  0  0  0  0  0  0  0  0
    3.8970   -0.3938    0.0000 C   0  0  0  0  0  0  0  0  0  0  0  0
   -1.2991   -0.3938    0.0000 C   0  0  0  0  0  0  0  0  0  0  0  0
    3.8970    1.1062    0.0000 C   0  0  0  0  0  0  0  0  0  0  0  0
   -1.2991    1.1062    0.0000 C   0  0  0  0  0  0  0  0  0  0  0  0
   -1.2991   -3.3937    0.0000 C   0  0  0  0  0  0  0  0  0  0  0  0
   -2.5980   -5.6437    0.0000 C   0  0  0  0  0  0  0  0  0  0  0  0
   -2.5980   -7.1437    0.0000 C   0  0  0  0  0  0  0  0  0  0  0  0
   -5.1961   -5.6437    0.0000 C   0  0  0  0  0  0  0  0  0  0  0  0
   -5.1961   -7.1437    0.0000 C   0  0  0  0  0  0  0  0  0  0  0  0
  1 12  1  0  0  0  0
  2 14  1  0  0  0  0
  3 18  2  0  0  0  0
  4 10  1  0  0  0  0
  4 17  2  0  0  0  0
  5 11  1  0  0  0  0
  5 18  1  0  0  0  0
  6 18  1  0  0  0  0
  6 19  1  0  0  0  0
  7 19  1  0  0  0  0
  7 21  2  0  0  0  0
  8 20  1  0  0  0  0
  8 22  2  0  0  0  0
  9 10  1  0  0  0  0
  9 11  1  0  0  0  0
  9 13  2  0  0  0  0
 10 12  2  0  0  0  0
 11 15  2  0  0  0  0
 12 16  1  0  0  0  0
 13 14  1  0  0  0  0
 14 16  2  0  0  0  0
 15 17  1  0  0  0  0
 19 20  2  0  0  0  0
 21 22  1  0  0  0  0
M  END
> <Value>
5.300000202445418

> <Relation>
<

> <SourceURI>
mol:CHEMBL1967336

$$$$

Generated by Molecular Materials Informatics

 17 19  0  0  0  0  0  0  0  0999 V2000
    0.4315   -2.9240    0.0000 O   0  0  0  0  0  0  0  0  0  0  0  0
    0.5591    4.2896    0.0000 O   0  0  0  0  0  0  0  0  0  0  0  0
   -0.4501   -1.7104    0.0000 N   0  0  0  0  0  0  0  0  0  0  0  0
   -0.0319    0.9296    0.0000 N   0  0  0  0  0  0  0  0  0  0  0  0
    1.8581   -0.9604    0.0000 C   0  0  0  0  0  0  0  0  0  0  0  0
    3.1571   -0.2104    0.0000 C   0  0  0  0  0  0  0  0  0  0  0  0
    1.8581   -2.4604    0.0000 C   0  0  0  0  0  0  0  0  0  0  0  0
    0.4315   -0.4969    0.0000 C   0  0  0  0  0  0  0  0  0  0  0  0
    3.1571    1.2896    0.0000 C   0  0  0  0  0  0  0  0  0  0  0  0
    4.4562   -0.9604    0.0000 C   0  0  0  0  0  0  0  0  0  0  0  0
    3.1571   -3.2104    0.0000 C   0  0  0  0  0  0  0  0  0  0  0  0
    4.4562   -2.4604    0.0000 C   0  0  0  0  0  0  0  0  0  0  0  0
    1.8581    2.0396    0.0000 C   0  0  0  0  0  0  0  0  0  0  0  0
    4.4562    2.0396    0.0000 C   0  0  0  0  0  0  0  0  0  0  0  0
    1.8581    3.5396    0.0000 C   0  0  0  0  0  0  0  0  0  0  0  0
    4.4562    3.5396    0.0000 C   0  0  0  0  0  0  0  0  0  0  0  0
    3.1571    4.2896    0.0000 C   0  0  0  0  0  0  0  0  0  0  0  0
  1  3  1  0  0  0  0
  1  7  1  0  0  0  0
  2 15  1  0  0  0  0
  3  8  2  0  0  0  0
  4  8  1  0  0  0  0
  5  6  2  0  0  0  0
  5  7  1  0  0  0  0
  5  8  1  0  0  0  0
  6  9  1  0  0  0  0
  6 10  1  0  0  0  0
  7 11  2  0  0  0  0
  9 13  1  0  0  0  0
  9 14  2  0  0  0  0
 10 12  2  0  0  0  0
 11 12  1  0  0  0  0
 13 15  2  0  0  0  0
 14 16  1  0  0  0  0
 15 17  1  0  0  0  0
 16 17  2  0  0  0  0
M  END
> <Value>
4.600000074606178

> <Relation>
<

> <SourceURI>
mol:CHEMBL1970340

$$$$

Generated by Molecular Materials Informatics

 38 41  0  0  0  0  0  0  0  0999 V2000
    9.8947  -10.1994    0.0000 C   0  0  0  0  0  0  0  0  0  0  0  0
    9.8871   -8.6963    0.0000 C   0  0  0  0  0  0  0  0  0  0  0  0
    4.6945  -10.1994    0.0000 C   0  0  0  0  0  0  0  0  0  0  0  0
   -3.1020   -8.7419    0.0000 C   0  0  0  0  0  0  0  0  0  0  0  0
   -4.4076   -7.9903    0.0000 N   0  0  0  0  0  0  0  0  0  0  0  0
   -5.7057  -10.2525    0.0000 N   0  0  0  0  0  0  0  0  0  0  0  0
   12.4833   -8.6887    0.0000 N   0  0  0  0  0  0  0  0  0  0  0  0
   -3.1020  -10.2525    0.0000 C   0  0  0  0  0  0  0  0  0  0  0  0
    8.5966  -10.9510    0.0000 C   0  0  0  0  0  0  0  0  0  0  0  0
   -4.4076  -11.0040    0.0000 C   0  0  0  0  0  0  0  0  0  0  0  0
    5.9926  -10.9510    0.0000 N   0  0  0  0  0  0  0  0  0  0  0  0
   15.0720  -10.1841    0.0000 N   0  0  0  0  0  0  0  0  0  0  0  0
   11.1852   -7.9448    0.0000 C   0  0  0  0  0  0  0  0  0  0  0  0
    3.3964  -10.9510    0.0000 N   0  0  0  0  0  0  0  0  0  0  0  0
   -5.7057   -8.7419    0.0000 C   0  0  0  0  0  0  0  0  0  0  0  0
    7.2908  -10.1994    0.0000 C   0  0  0  0  0  0  0  0  0  0  0  0
    4.6945   -8.6963    0.0000 O   0  0  0  0  0  0  0  0  0  0  0  0
    8.5813   -7.9522    0.0000 C   0  0  0  0  0  0  0  0  0  0  0  0
   -1.8038   -7.9827    0.0000 O   0  0  0  0  0  0  0  0  0  0  0  0
    2.1059  -10.2146    0.0000 C   0  0  0  0  0  0  0  0  0  0  0  0
   -4.4152  -12.4997    0.0000 N   0  0  0  0  0  0  0  0  0  0  0  0
   13.7663   -7.9295    0.0000 C   0  0  0  0  0  0  0  0  0  0  0  0
   12.4910  -10.1994    0.0000 C   0  0  0  0  0  0  0  0  0  0  0  0
   13.7738  -10.9282    0.0000 C   0  0  0  0  0  0  0  0  0  0  0  0
   15.0645   -8.6810    0.0000 C   0  0  0  0  0  0  0  0  0  0  0  0
   -0.4981   -8.7266    0.0000 C   0  0  0  0  0  0  0  0  0  0  0  0
    7.2908   -8.7038    0.0000 C   0  0  0  0  0  0  0  0  0  0  0  0
    0.8001  -10.9738    0.0000 C   0  0  0  0  0  0  0  0  0  0  0  0
    2.0906   -8.7038    0.0000 C   0  0  0  0  0  0  0  0  0  0  0  0
   -0.4981  -10.2297    0.0000 C   0  0  0  0  0  0  0  0  0  0  0  0
    0.7850   -7.9676    0.0000 C   0  0  0  0  0  0  0  0  0  0  0  0
   16.3701  -10.9282    0.0000 C   0  0  0  0  0  0  0  0  0  0  0  0
   -3.1248  -13.2663    0.0000 C   0  0  0  0  0  0  0  0  0  0  0  0
   17.6682  -10.1767    0.0000 C   0  0  0  0  0  0  0  0  0  0  0  0
   11.1987  -10.9468    0.0000 C   0  0  0  0  0  0  0  0  0  0  0  0
   10.7980  -12.3932    0.0000 F   0  0  0  0  0  0  0  0  0  0  0  0
   11.9367  -12.2415    0.0000 F   0  0  0  0  0  0  0  0  0  0  0  0
   12.6428  -11.3305    0.0000 F   0  0  0  0  0  0  0  0  0  0  0  0
  5  4  2  0  0  0  0
  6 15  2  0  0  0  0
  7 13  1  0  0  0  0
  8  4  1  0  0  0  0
  9  1  1  0  0  0  0
 10  8  2  0  0  0  0
 11 16  1  0  0  0  0
 12 25  1  0  0  0  0
 13  2  1  0  0  0  0
 14  3  1  0  0  0  0
 15  5  1  0  0  0  0
 16  9  2  0  0  0  0
 17  3  2  0  0  0  0
 18  2  1  0  0  0  0
 19 26  1  0  0  0  0
 20 14  1  0  0  0  0
 21 10  1  0  0  0  0
 22  7  1  0  0  0  0
 23  7  1  0  0  0  0
 24 23  1  0  0  0  0
 25 22  1  0  0  0  0
 26 31  2  0  0  0  0
 27 18  2  0  0  0  0
 28 20  1  0  0  0  0
 29 20  2  0  0  0  0
 30 28  2  0  0  0  0
 31 29  1  0  0  0  0
 32 12  1  0  0  0  0
 33 21  1  0  0  0  0
 34 32  1  0  0  0  0
 16 27  1  0  0  0  0
 12 24  1  0  0  0  0
 30 26  1  0  0  0  0
 10  6  1  0  0  0  0
  1 35  1  0  0  0  0
  2  1  2  0  0  0  0
 35 36  1  0  0  0  0
  3 11  1  0  0  0  0
 35 37  1  0  0  0  0
  4 19  1  0  0  0  0
 35 38  1  0  0  0  0
M  END
> <Value>
5.40000018605658

> <Relation>
=

> <SourceURI>
mol:CHEMBL574738

$$$$

Generated by Molecular Materials Informatics

 34 38  0  0  0  0  0  0  0  0999 V2000
   11.7633   -3.4458    0.0000 O   0  0  0  0  0  0  0  0  0  0  0  0
   14.3615   -1.9458    0.0000 O   0  0  0  0  0  0  0  0  0  0  0  0
    6.5671   -1.9458    0.0000 N   0  0  0  0  0  0  0  0  0  0  0  0
    5.2682   -4.1958    0.0000 N   0  0  0  0  0  0  0  0  0  0  0  0
    5.2682    0.3041    0.0000 N   0  0  0  0  0  0  0  0  0  0  0  0
   -0.0556    3.0178    0.0000 N   0  0  0  0  0  0  0  0  0  0  0  0
   -0.9373    1.8041    0.0000 N   0  0  0  0  0  0  0  0  0  0  0  0
   13.0624    0.3041    0.0000 N   0  0  0  0  0  0  0  0  0  0  0  0
    3.9691   -1.9458    0.0000 C   0  0  0  0  0  0  0  0  0  0  0  0
    5.2682   -1.1958    0.0000 C   0  0  0  0  0  0  0  0  0  0  0  0
    3.9691   -3.4458    0.0000 C   0  0  0  0  0  0  0  0  0  0  0  0
    6.5671   -3.4458    0.0000 C   0  0  0  0  0  0  0  0  0  0  0  0
    7.8662   -4.1958    0.0000 C   0  0  0  0  0  0  0  0  0  0  0  0
    3.9691    1.0541    0.0000 C   0  0  0  0  0  0  0  0  0  0  0  0
    1.3711    1.0541    0.0000 C   0  0  0  0  0  0  0  0  0  0  0  0
    2.6700   -1.1958    0.0000 C   0  0  0  0  0  0  0  0  0  0  0  0
    1.3711    2.5542    0.0000 C   0  0  0  0  0  0  0  0  0  0  0  0
    2.6700   -4.1958    0.0000 C   0  0  0  0  0  0  0  0  0  0  0  0
    2.6700    0.3041    0.0000 C   0  0  0  0  0  0  0  0  0  0  0  0
    9.1653   -3.4458    0.0000 C   0  0  0  0  0  0  0  0  0  0  0  0
    3.9691    2.5542    0.0000 C   0  0  0  0  0  0  0  0  0  0  0  0
    7.8662   -5.6958    0.0000 C   0  0  0  0  0  0  0  0  0  0  0  0
    2.6700    3.3042    0.0000 C   0  0  0  0  0  0  0  0  0  0  0  0
   10.4644   -4.1958    0.0000 C   0  0  0  0  0  0  0  0  0  0  0  0
    1.3711   -1.9458    0.0000 C   0  0  0  0  0  0  0  0  0  0  0  0
    1.3711   -3.4458    0.0000 C   0  0  0  0  0  0  0  0  0  0  0  0
   -0.0556    0.5907    0.0000 C   0  0  0  0  0  0  0  0  0  0  0  0
    9.1653   -6.4458    0.0000 C   0  0  0  0  0  0  0  0  0  0  0  0
   10.4644   -5.6958    0.0000 C   0  0  0  0  0  0  0  0  0  0  0  0
   11.7633   -1.9458    0.0000 C   0  0  0  0  0  0  0  0  0  0  0  0
   13.0624   -1.1958    0.0000 C   0  0  0  0  0  0  0  0  0  0  0  0
   14.3615    1.0541    0.0000 C   0  0  0  0  0  0  0  0  0  0  0  0
   14.3615    2.5542    0.0000 C   0  0  0  0  0  0  0  0  0  0  0  0
   15.6604    0.3041    0.0000 C   0  0  0  0  0  0  0  0  0  0  0  0
  1 24  1  0  0  0  0
  1 30  1  0  0  0  0
  2 31  2  0  0  0  0
  3 10  1  0  0  0  0
  3 12  2  0  0  0  0
  4 11  2  0  0  0  0
  4 12  1  0  0  0  0
  5 10  1  0  0  0  0
  5 14  1  0  0  0  0
  6  7  1  0  0  0  0
  6 17  1  0  0  0  0
  7 27  2  0  0  0  0
  8 31  1  0  0  0  0
  8 32  1  0  0  0  0
  9 10  2  0  0  0  0
  9 11  1  0  0  0  0
  9 16  1  0  0  0  0
 11 18  1  0  0  0  0
 12 13  1  0  0  0  0
 13 20  2  0  0  0  0
 13 22  1  0  0  0  0
 14 19  1  0  0  0  0
 14 21  2  0  0  0  0
 15 17  1  0  0  0  0
 15 19  2  0  0  0  0
 15 27  1  0  0  0  0
 16 25  2  0  0  0  0
 17 23  2  0  0  0  0
 18 26  2  0  0  0  0
 20 24  1  0  0  0  0
 21 23  1  0  0  0  0
 22 28  2  0  0  0  0
 24 29  2  0  0  0  0
 25 26  1  0  0  0  0
 28 29  1  0  0  0  0
 30 31  1  0  0  0  0
 32 33  1  0  0  0  0
 32 34  1  0  0  0  0
M  END
> <Value>
5.899998417198648

> <Relation>
<

> <SourceURI>
mol:CHEMBL2005186

$$$$

Generated by Molecular Materials Informatics

 16 17  0  0  0  0  0  0  0  0999 V2000
    0.5320   -0.7509    0.0000 O   0  0  0  0  0  0  0  0  0  0  0  0
   -0.7669   -3.0008    0.0000 O   0  0  0  0  0  0  0  0  0  0  0  0
   -4.7353   -0.8907    0.0000 N   0  0  0  0  0  0  0  0  0  0  0  0
   -3.5217   -2.9927    0.0000 N   0  0  0  0  0  0  0  0  0  0  0  0
   -7.9889   -0.7064    0.0000 N   0  0  0  0  0  0  0  0  0  0  0  0
   -5.7389   -2.0054    0.0000 C   0  0  0  0  0  0  0  0  0  0  0  0
   -4.9890   -3.3045    0.0000 C   0  0  0  0  0  0  0  0  0  0  0  0
   -3.3650   -1.5009    0.0000 C   0  0  0  0  0  0  0  0  0  0  0  0
   -7.2389   -2.0054    0.0000 C   0  0  0  0  0  0  0  0  0  0  0  0
   -5.7389   -4.6035    0.0000 C   0  0  0  0  0  0  0  0  0  0  0  0
   -2.0660   -0.7509    0.0000 C   0  0  0  0  0  0  0  0  0  0  0  0
   -7.9889   -3.3045    0.0000 C   0  0  0  0  0  0  0  0  0  0  0  0
   -7.2389   -4.6035    0.0000 C   0  0  0  0  0  0  0  0  0  0  0  0
   -0.7669   -1.5009    0.0000 C   0  0  0  0  0  0  0  0  0  0  0  0
    1.8310   -1.5009    0.0000 C   0  0  0  0  0  0  0  0  0  0  0  0
    3.1301   -0.7509    0.0000 C   0  0  0  0  0  0  0  0  0  0  0  0
  1 14  1  0  0  0  0
  1 15  1  0  0  0  0
  2 14  2  0  0  0  0
  3  6  1  0  0  0  0
  3  8  2  0  0  0  0
  4  7  1  0  0  0  0
  4  8  1  0  0  0  0
  5  9  1  0  0  0  0
  6  7  1  0  0  0  0
  6  9  2  0  0  0  0
  7 10  2  0  0  0  0
  8 11  1  0  0  0  0
  9 12  1  0  0  0  0
 10 13  1  0  0  0  0
 11 14  1  0  0  0  0
 12 13  2  0  0  0  0
 15 16  1  0  0  0  0
M  END
> <Value>
5.300000202445418

> <Relation>
<

> <SourceURI>
mol:CHEMBL1981671

$$$$

Generated by Molecular Materials Informatics

 23 25  0  0  0  0  0  0  0  0999 V2000
   -2.5467    8.3405    0.0000 Cl  0  0  0  0  0  0  0  0  0  0  0  0
    1.3504    6.0905    0.0000 O   0  0  0  0  0  0  0  0  0  0  0  0
   -7.5187    3.3358    0.0000 N   0  0  0  0  0  0  0  0  0  0  0  0
   -7.2323    0.6102    0.0000 N   0  0  0  0  0  0  0  0  0  0  0  0
   -1.2476    6.0905    0.0000 N   0  0  0  0  0  0  0  0  0  0  0  0
    0.0515    3.8405    0.0000 N   0  0  0  0  0  0  0  0  0  0  0  0
   -5.1447    3.8405    0.0000 C   0  0  0  0  0  0  0  0  0  0  0  0
   -5.3016    2.3487    0.0000 C   0  0  0  0  0  0  0  0  0  0  0  0
   -3.8456    4.5905    0.0000 C   0  0  0  0  0  0  0  0  0  0  0  0
   -6.7687    2.0369    0.0000 C   0  0  0  0  0  0  0  0  0  0  0  0
   -6.5151    4.4505    0.0000 C   0  0  0  0  0  0  0  0  0  0  0  0
   -2.5467    3.8405    0.0000 C   0  0  0  0  0  0  0  0  0  0  0  0
   -3.8456    6.0905    0.0000 C   0  0  0  0  0  0  0  0  0  0  0  0
   -1.2476    4.5905    0.0000 C   0  0  0  0  0  0  0  0  0  0  0  0
   -4.2978    1.2340    0.0000 C   0  0  0  0  0  0  0  0  0  0  0  0
   -2.5467    6.8405    0.0000 C   0  0  0  0  0  0  0  0  0  0  0  0
   -4.7614   -0.1925    0.0000 C   0  0  0  0  0  0  0  0  0  0  0  0
   -6.2285   -0.5045    0.0000 C   0  0  0  0  0  0  0  0  0  0  0  0
    1.3504    4.5905    0.0000 C   0  0  0  0  0  0  0  0  0  0  0  0
    2.6495    3.8405    0.0000 C   0  0  0  0  0  0  0  0  0  0  0  0
    3.9486    4.5905    0.0000 C   0  0  0  0  0  0  0  0  0  0  0  0
    5.2475    3.8405    0.0000 C   0  0  0  0  0  0  0  0  0  0  0  0
    6.5466    4.5905    0.0000 C   0  0  0  0  0  0  0  0  0  0  0  0
  1 16  1  0  0  0  0
  2 19  2  0  0  0  0
  3 10  1  0  0  0  0
  3 11  1  0  0  0  0
  4 10  2  0  0  0  0
  4 18  1  0  0  0  0
  5 14  1  0  0  0  0
  5 16  2  0  0  0  0
  6 14  1  0  0  0  0
  6 19  1  0  0  0  0
  7  8  1  0  0  0  0
  7  9  1  0  0  0  0
  7 11  2  0  0  0  0
  8 10  1  0  0  0  0
  8 15  2  0  0  0  0
  9 12  1  0  0  0  0
  9 13  2  0  0  0  0
 12 14  2  0  0  0  0
 13 16  1  0  0  0  0
 15 17  1  0  0  0  0
 17 18  2  0  0  0  0
 19 20  1  0  0  0  0
 20 21  1  0  0  0  0
 21 22  1  0  0  0  0
 22 23  1  0  0  0  0
M  END
> <Value>
5.499999678657065

> <Relation>
<

> <SourceURI>
mol:CHEMBL2006450

$$$$

Generated by Molecular Materials Informatics

 18 19  0  0  0  0  0  0  0  0999 V2000
   -5.8808   -4.1993    0.0000 I   0  0  0  0  0  0  0  0  0  0  0  0
   -1.0487   -2.5254    0.0000 O   0  0  0  0  0  0  0  0  0  0  0  0
    0.2502    1.2246    0.0000 O   0  0  0  0  0  0  0  0  0  0  0  0
   -3.6468   -1.0254    0.0000 N   0  0  0  0  0  0  0  0  0  0  0  0
   -5.4806    1.0113    0.0000 N   0  0  0  0  0  0  0  0  0  0  0  0
   -7.9515    0.2084    0.0000 N   0  0  0  0  0  0  0  0  0  0  0  0
   -8.4916   -2.3328    0.0000 N   0  0  0  0  0  0  0  0  0  0  0  0
    2.8483   -0.2754    0.0000 N   0  0  0  0  0  0  0  0  0  0  0  0
   -6.0208   -1.5299    0.0000 C   0  0  0  0  0  0  0  0  0  0  0  0
   -5.0170   -0.4152    0.0000 C   0  0  0  0  0  0  0  0  0  0  0  0
   -5.2708   -2.8290    0.0000 C   0  0  0  0  0  0  0  0  0  0  0  0
   -7.4880   -1.2181    0.0000 C   0  0  0  0  0  0  0  0  0  0  0  0
   -3.8035   -2.5172    0.0000 C   0  0  0  0  0  0  0  0  0  0  0  0
   -2.3477   -0.2754    0.0000 C   0  0  0  0  0  0  0  0  0  0  0  0
   -1.0487   -1.0254    0.0000 C   0  0  0  0  0  0  0  0  0  0  0  0
   -6.9478    1.3231    0.0000 C   0  0  0  0  0  0  0  0  0  0  0  0
    0.2502   -0.2754    0.0000 C   0  0  0  0  0  0  0  0  0  0  0  0
    1.5493   -1.0254    0.0000 C   0  0  0  0  0  0  0  0  0  0  0  0
  1 11  1  0  0  0  0
  2 15  1  0  0  0  0
  3 17  1  0  0  0  0
  4 10  1  0  0  0  0
  4 13  1  0  0  0  0
  4 14  1  0  0  0  0
  5 10  2  0  0  0  0
  5 16  1  0  0  0  0
  6 12  1  0  0  0  0
  6 16  2  0  0  0  0
  7 12  1  0  0  0  0
  8 18  1  0  0  0  0
  9 10  1  0  0  0  0
  9 11  1  0  0  0  0
  9 12  2  0  0  0  0
 11 13  2  0  0  0  0
 14 15  1  0  0  0  0
 15 17  1  0  0  0  0
 17 18  1  0  0  0  0
M  END
> <Value>
5.899998417198648

> <Relation>
<

> <SourceURI>
mol:CHEMBL1975534

$$$$

Generated by Molecular Materials Informatics

 27 30  0  0  0  0  0  0  0  0999 V2000
    6.1120    3.4553    0.0000 S   0  0  0  0  0  0  0  0  0  0  0  0
    6.1120    4.9553    0.0000 O   0  0  0  0  0  0  0  0  0  0  0  0
    4.6120    3.4553    0.0000 O   0  0  0  0  0  0  0  0  0  0  0  0
   -1.8098   -0.7581    0.0000 N   0  0  0  0  0  0  0  0  0  0  0  0
    0.9158   -1.0447    0.0000 N   0  0  0  0  0  0  0  0  0  0  0  0
    2.2147    1.2053    0.0000 N   0  0  0  0  0  0  0  0  0  0  0  0
    3.5138   -1.0447    0.0000 N   0  0  0  0  0  0  0  0  0  0  0  0
    7.6120    3.4553    0.0000 N   0  0  0  0  0  0  0  0  0  0  0  0
   -0.3833   -0.2947    0.0000 C   0  0  0  0  0  0  0  0  0  0  0  0
   -0.3833    1.2053    0.0000 C   0  0  0  0  0  0  0  0  0  0  0  0
    2.2147   -0.2947    0.0000 C   0  0  0  0  0  0  0  0  0  0  0  0
   -1.8098    1.6688    0.0000 C   0  0  0  0  0  0  0  0  0  0  0  0
   -2.6915    0.4553    0.0000 C   0  0  0  0  0  0  0  0  0  0  0  0
    0.9158    1.9553    0.0000 C   0  0  0  0  0  0  0  0  0  0  0  0
    4.8129   -0.2947    0.0000 C   0  0  0  0  0  0  0  0  0  0  0  0
    6.1120    1.9553    0.0000 C   0  0  0  0  0  0  0  0  0  0  0  0
   -2.2735   -2.1849    0.0000 C   0  0  0  0  0  0  0  0  0  0  0  0
    4.8129    1.2053    0.0000 C   0  0  0  0  0  0  0  0  0  0  0  0
   -3.7406   -2.4967    0.0000 C   0  0  0  0  0  0  0  0  0  0  0  0
    6.1120   -1.0447    0.0000 C   0  0  0  0  0  0  0  0  0  0  0  0
    7.4109    1.2053    0.0000 C   0  0  0  0  0  0  0  0  0  0  0  0
    7.4109   -0.2947    0.0000 C   0  0  0  0  0  0  0  0  0  0  0  0
   -4.2042   -3.9232    0.0000 C   0  0  0  0  0  0  0  0  0  0  0  0
   -4.7444   -1.3819    0.0000 C   0  0  0  0  0  0  0  0  0  0  0  0
   -5.6713   -4.2350    0.0000 C   0  0  0  0  0  0  0  0  0  0  0  0
   -6.2115   -1.6938    0.0000 C   0  0  0  0  0  0  0  0  0  0  0  0
   -6.6751   -3.1203    0.0000 C   0  0  0  0  0  0  0  0  0  0  0  0
  1  2  2  0  0  0  0
  1  3  2  0  0  0  0
  1  8  1  0  0  0  0
  1 16  1  0  0  0  0
  4  9  1  0  0  0  0
  4 13  1  0  0  0  0
  4 17  1  0  0  0  0
  5  9  2  0  0  0  0
  5 11  1  0  0  0  0
  6 11  2  0  0  0  0
  6 14  1  0  0  0  0
  7 11  1  0  0  0  0
  7 15  1  0  0  0  0
  9 10  1  0  0  0  0
 10 12  1  0  0  0  0
 10 14  2  0  0  0  0
 12 13  2  0  0  0  0
 15 18  2  0  0  0  0
 15 20  1  0  0  0  0
 16 18  1  0  0  0  0
 16 21  2  0  0  0  0
 17 19  1  0  0  0  0
 19 23  2  0  0  0  0
 19 24  1  0  0  0  0
 20 22  2  0  0  0  0
 21 22  1  0  0  0  0
 23 25  1  0  0  0  0
 24 26  2  0  0  0  0
 25 27  2  0  0  0  0
 26 27  1  0  0  0  0
M  END
> <Value>
5.899998417198648

> <Relation>
<

> <SourceURI>
mol:CHEMBL1993424

$$$$

Generated by Molecular Materials Informatics

 26 28  0  0  0  0  0  0  0  0999 V2000
    2.9355   -1.9687    0.0000 F   0  0  0  0  0  0  0  0  0  0  0  0
    2.9355    4.0313    0.0000 F   0  0  0  0  0  0  0  0  0  0  0  0
   -3.5596  -10.2188    0.0000 F   0  0  0  0  0  0  0  0  0  0  0  0
   -5.0596   -8.7188    0.0000 F   0  0  0  0  0  0  0  0  0  0  0  0
   -2.0596   -8.7188    0.0000 F   0  0  0  0  0  0  0  0  0  0  0  0
   -2.2605   -1.9687    0.0000 O   0  0  0  0  0  0  0  0  0  0  0  0
    0.3375    2.5313    0.0000 N   0  0  0  0  0  0  0  0  0  0  0  0
    0.3375   -1.9687    0.0000 N   0  0  0  0  0  0  0  0  0  0  0  0
   -2.2605   -6.4688    0.0000 N   0  0  0  0  0  0  0  0  0  0  0  0
   -0.9616   -4.2188    0.0000 N   0  0  0  0  0  0  0  0  0  0  0  0
    1.6366    0.2813    0.0000 C   0  0  0  0  0  0  0  0  0  0  0  0
    1.6366    1.7813    0.0000 C   0  0  0  0  0  0  0  0  0  0  0  0
    0.3375   -0.4687    0.0000 C   0  0  0  0  0  0  0  0  0  0  0  0
    2.9355   -0.4687    0.0000 C   0  0  0  0  0  0  0  0  0  0  0  0
    2.9355    2.5313    0.0000 C   0  0  0  0  0  0  0  0  0  0  0  0
   -3.5596   -7.2188    0.0000 C   0  0  0  0  0  0  0  0  0  0  0  0
   -0.9616    0.2813    0.0000 C   0  0  0  0  0  0  0  0  0  0  0  0
   -3.5596   -8.7188    0.0000 C   0  0  0  0  0  0  0  0  0  0  0  0
    4.2346    0.2813    0.0000 C   0  0  0  0  0  0  0  0  0  0  0  0
   -2.2605   -4.9688    0.0000 C   0  0  0  0  0  0  0  0  0  0  0  0
    4.2346    1.7813    0.0000 C   0  0  0  0  0  0  0  0  0  0  0  0
   -0.9616   -2.7188    0.0000 C   0  0  0  0  0  0  0  0  0  0  0  0
   -0.9616    1.7813    0.0000 C   0  0  0  0  0  0  0  0  0  0  0  0
   -4.8587   -6.4688    0.0000 C   0  0  0  0  0  0  0  0  0  0  0  0
   -3.5596   -4.2188    0.0000 C   0  0  0  0  0  0  0  0  0  0  0  0
   -4.8587   -4.9688    0.0000 C   0  0  0  0  0  0  0  0  0  0  0  0
  1 14  1  0  0  0  0
  2 15  1  0  0  0  0
  3 18  1  0  0  0  0
  4 18  1  0  0  0  0
  5 18  1  0  0  0  0
  6 22  2  0  0  0  0
  7 12  2  0  0  0  0
  7 23  1  0  0  0  0
  8 13  1  0  0  0  0
  8 22  1  0  0  0  0
  9 16  2  0  0  0  0
  9 20  1  0  0  0  0
 10 20  1  0  0  0  0
 10 22  1  0  0  0  0
 11 12  1  0  0  0  0
 11 13  2  0  0  0  0
 11 14  1  0  0  0  0
 12 15  1  0  0  0  0
 13 17  1  0  0  0  0
 14 19  2  0  0  0  0
 15 21  2  0  0  0  0
 16 18  1  0  0  0  0
 16 24  1  0  0  0  0
 17 23  2  0  0  0  0
 19 21  1  0  0  0  0
 20 25  2  0  0  0  0
 24 26  2  0  0  0  0
 25 26  1  0  0  0  0
M  END
> <Value>
5.300000202445418

> <Relation>
<

> <SourceURI>
mol:CHEMBL2001987

$$$$

Generated by Molecular Materials Informatics

 28 31  0  0  0  0  0  0  0  0999 V2000
    3.1459    3.5840    0.0000 O   0  0  0  0  0  0  0  0  0  0  0  0
    4.9525   -0.0017    0.0000 N   0  0  0  0  0  0  0  0  0  0  0  0
    2.7354   -0.9888    0.0000 N   0  0  0  0  0  0  0  0  0  0  0  0
    4.2025   -1.3008    0.0000 N   0  0  0  0  0  0  0  0  0  0  0  0
    5.6874    3.0438    0.0000 N   0  0  0  0  0  0  0  0  0  0  0  0
   -2.7452    3.2165    0.0000 N   0  0  0  0  0  0  0  0  0  0  0  0
   -3.6268    2.0029    0.0000 N   0  0  0  0  0  0  0  0  0  0  0  0
    3.9488    1.1131    0.0000 C   0  0  0  0  0  0  0  0  0  0  0  0
    2.5785    0.5029    0.0000 C   0  0  0  0  0  0  0  0  0  0  0  0
    1.2796    1.2529    0.0000 C   0  0  0  0  0  0  0  0  0  0  0  0
    4.2607    2.5803    0.0000 C   0  0  0  0  0  0  0  0  0  0  0  0
   -1.3186    1.2529    0.0000 C   0  0  0  0  0  0  0  0  0  0  0  0
   -0.0195    0.5029    0.0000 C   0  0  0  0  0  0  0  0  0  0  0  0
   -1.3186    2.7529    0.0000 C   0  0  0  0  0  0  0  0  0  0  0  0
    1.2796    2.7529    0.0000 C   0  0  0  0  0  0  0  0  0  0  0  0
    6.4443    0.1551    0.0000 C   0  0  0  0  0  0  0  0  0  0  0  0
   -0.0195    3.5029    0.0000 C   0  0  0  0  0  0  0  0  0  0  0  0
    7.3259   -1.0584    0.0000 C   0  0  0  0  0  0  0  0  0  0  0  0
   -2.7452    0.7894    0.0000 C   0  0  0  0  0  0  0  0  0  0  0  0
    5.9992    4.5111    0.0000 C   0  0  0  0  0  0  0  0  0  0  0  0
    6.8019    2.0402    0.0000 C   0  0  0  0  0  0  0  0  0  0  0  0
    8.8178   -0.9017    0.0000 C   0  0  0  0  0  0  0  0  0  0  0  0
    6.7159   -2.4288    0.0000 C   0  0  0  0  0  0  0  0  0  0  0  0
    4.8845    5.5147    0.0000 C   0  0  0  0  0  0  0  0  0  0  0  0
    7.4258    4.9745    0.0000 C   0  0  0  0  0  0  0  0  0  0  0  0
    9.6994   -2.1151    0.0000 C   0  0  0  0  0  0  0  0  0  0  0  0
    7.5976   -3.6422    0.0000 C   0  0  0  0  0  0  0  0  0  0  0  0
    9.0894   -3.4855    0.0000 C   0  0  0  0  0  0  0  0  0  0  0  0
  1 11  2  0  0  0  0
  2  4  1  0  0  0  0
  2  8  1  0  0  0  0
  2 16  1  0  0  0  0
  3  4  2  0  0  0  0
  3  9  1  0  0  0  0
  5 11  1  0  0  0  0
  5 20  1  0  0  0  0
  5 21  1  0  0  0  0
  6  7  1  0  0  0  0
  6 14  1  0  0  0  0
  7 19  2  0  0  0  0
  8  9  2  0  0  0  0
  8 11  1  0  0  0  0
  9 10  1  0  0  0  0
 10 13  1  0  0  0  0
 10 15  2  0  0  0  0
 12 13  2  0  0  0  0
 12 14  1  0  0  0  0
 12 19  1  0  0  0  0
 14 17  2  0  0  0  0
 15 17  1  0  0  0  0
 16 18  1  0  0  0  0
 18 22  2  0  0  0  0
 18 23  1  0  0  0  0
 20 24  1  0  0  0  0
 20 25  1  0  0  0  0
 22 26  1  0  0  0  0
 23 27  2  0  0  0  0
 26 28  2  0  0  0  0
 27 28  1  0  0  0  0
M  END
> <Value>
5.899998417198648

> <Relation>
<

> <SourceURI>
mol:CHEMBL1969561

$$$$

Generated by Molecular Materials Informatics

 20 22  0  0  0  0  0  0  0  0999 V2000
   -7.6046    2.2189    0.0000 O   0  0  0  0  0  0  0  0  0  0  0  0
    0.0270    2.1333    0.0000 N   0  0  0  0  0  0  0  0  0  0  0  0
    2.7526   -0.5801    0.0000 N   0  0  0  0  0  0  0  0  0  0  0  0
    2.7526    2.4199    0.0000 N   0  0  0  0  0  0  0  0  0  0  0  0
   -0.8546    0.9199    0.0000 C   0  0  0  0  0  0  0  0  0  0  0  0
    0.0270   -0.2936    0.0000 C   0  0  0  0  0  0  0  0  0  0  0  0
    1.4535    0.1699    0.0000 C   0  0  0  0  0  0  0  0  0  0  0  0
    1.4535    1.6699    0.0000 C   0  0  0  0  0  0  0  0  0  0  0  0
   -2.3546    0.9199    0.0000 C   0  0  0  0  0  0  0  0  0  0  0  0
   -0.4366   -1.7203    0.0000 C   0  0  0  0  0  0  0  0  0  0  0  0
   -3.1046   -0.3792    0.0000 C   0  0  0  0  0  0  0  0  0  0  0  0
   -3.1046    2.2189    0.0000 C   0  0  0  0  0  0  0  0  0  0  0  0
   -5.3546    0.9199    0.0000 C   0  0  0  0  0  0  0  0  0  0  0  0
    4.0515    0.1699    0.0000 C   0  0  0  0  0  0  0  0  0  0  0  0
    4.0515    1.6699    0.0000 C   0  0  0  0  0  0  0  0  0  0  0  0
   -4.6046   -0.3792    0.0000 C   0  0  0  0  0  0  0  0  0  0  0  0
   -4.6046    2.2189    0.0000 C   0  0  0  0  0  0  0  0  0  0  0  0
   -6.8546    0.9199    0.0000 C   0  0  0  0  0  0  0  0  0  0  0  0
    0.5672   -2.8351    0.0000 C   0  0  0  0  0  0  0  0  0  0  0  0
   -7.6046   -0.3792    0.0000 C   0  0  0  0  0  0  0  0  0  0  0  0
  1 18  2  0  0  0  0
  2  5  1  0  0  0  0
  2  8  1  0  0  0  0
  3  7  2  0  0  0  0
  3 14  1  0  0  0  0
  4  8  2  0  0  0  0
  4 15  1  0  0  0  0
  5  6  2  0  0  0  0
  5  9  1  0  0  0  0
  6  7  1  0  0  0  0
  6 10  1  0  0  0  0
  7  8  1  0  0  0  0
  9 11  2  0  0  0  0
  9 12  1  0  0  0  0
 10 19  1  0  0  0  0
 11 16  1  0  0  0  0
 12 17  2  0  0  0  0
 13 16  2  0  0  0  0
 13 17  1  0  0  0  0
 13 18  1  0  0  0  0
 14 15  2  0  0  0  0
 18 20  1  0  0  0  0
M  END
> <Value>
5.300000202445418

> <Relation>
<

> <SourceURI>
mol:CHEMBL1994555

$$$$

Generated by Molecular Materials Informatics

 25 27  0  0  0  0  0  0  0  0999 V2000
    2.8255    0.6750    0.0000 O   0  0  0  0  0  0  0  0  0  0  0  0
    8.0215    6.6748    0.0000 O   0  0  0  0  0  0  0  0  0  0  0  0
    5.4236    0.6750    0.0000 N   0  0  0  0  0  0  0  0  0  0  0  0
    4.1245   -9.0747    0.0000 N   0  0  0  0  0  0  0  0  0  0  0  0
    4.1245   -1.5750    0.0000 C   0  0  0  0  0  0  0  0  0  0  0  0
    4.1245   -4.5749    0.0000 C   0  0  0  0  0  0  0  0  0  0  0  0
    4.1245   -0.0750    0.0000 C   0  0  0  0  0  0  0  0  0  0  0  0
    6.7224    2.9249    0.0000 C   0  0  0  0  0  0  0  0  0  0  0  0
    5.4236    2.1749    0.0000 C   0  0  0  0  0  0  0  0  0  0  0  0
    4.1245   -6.0748    0.0000 C   0  0  0  0  0  0  0  0  0  0  0  0
    5.4236   -2.3250    0.0000 C   0  0  0  0  0  0  0  0  0  0  0  0
    2.8255   -2.3250    0.0000 C   0  0  0  0  0  0  0  0  0  0  0  0
    5.4236   -3.8249    0.0000 C   0  0  0  0  0  0  0  0  0  0  0  0
    2.8255   -3.8249    0.0000 C   0  0  0  0  0  0  0  0  0  0  0  0
    6.7224    4.4248    0.0000 C   0  0  0  0  0  0  0  0  0  0  0  0
    8.0215    5.1748    0.0000 C   0  0  0  0  0  0  0  0  0  0  0  0
    8.0215    2.1749    0.0000 C   0  0  0  0  0  0  0  0  0  0  0  0
    2.8255   -6.8248    0.0000 C   0  0  0  0  0  0  0  0  0  0  0  0
    5.4236   -6.8248    0.0000 C   0  0  0  0  0  0  0  0  0  0  0  0
    9.3205    4.4248    0.0000 C   0  0  0  0  0  0  0  0  0  0  0  0
    9.3205    2.9249    0.0000 C   0  0  0  0  0  0  0  0  0  0  0  0
    4.1245    2.9249    0.0000 C   0  0  0  0  0  0  0  0  0  0  0  0
    2.8255   -8.3248    0.0000 C   0  0  0  0  0  0  0  0  0  0  0  0
    5.4236   -8.3248    0.0000 C   0  0  0  0  0  0  0  0  0  0  0  0
    6.7224    7.4248    0.0000 C   0  0  0  0  0  0  0  0  0  0  0  0
  1  7  2  0  0  0  0
  2 16  1  0  0  0  0
  2 25  1  0  0  0  0
  3  7  1  0  0  0  0
  3  9  1  0  0  0  0
  4 23  2  0  0  0  0
  4 24  1  0  0  0  0
  5  7  1  0  0  0  0
  5 11  2  0  0  0  0
  5 12  1  0  0  0  0
  6 10  1  0  0  0  0
  6 13  2  0  0  0  0
  6 14  1  0  0  0  0
  8  9  1  0  0  0  0
  8 15  2  0  0  0  0
  8 17  1  0  0  0  0
  9 22  1  0  0  0  0
 10 18  2  0  0  0  0
 10 19  1  0  0  0  0
 11 13  1  0  0  0  0
 12 14  2  0  0  0  0
 15 16  1  0  0  0  0
 16 20  2  0  0  0  0
 17 21  2  0  0  0  0
 18 23  1  0  0  0  0
 19 24  2  0  0  0  0
 20 21  1  0  0  0  0
M  END
> <Value>
5.300000202445418

> <Relation>
<

> <SourceURI>
mol:CHEMBL1975121

$$$$

Generated by Molecular Materials Informatics

 37 41  0  0  0  0  0  0  0  0999 V2000
    0.5257   -6.0671    0.0000 F   0  0  0  0  0  0  0  0  0  0  0  0
   -1.0949    3.9839    0.0000 O   0  0  0  0  0  0  0  0  0  0  0  0
   -0.4782   -4.9525    0.0000 O   0  0  0  0  0  0  0  0  0  0  0  0
    5.5278   11.0202    0.0000 O   0  0  0  0  0  0  0  0  0  0  0  0
    2.9298    2.0202    0.0000 N   0  0  0  0  0  0  0  0  0  0  0  0
    1.6308   -0.2298    0.0000 N   0  0  0  0  0  0  0  0  0  0  0  0
   -2.9491   -4.1496    0.0000 N   0  0  0  0  0  0  0  0  0  0  0  0
   -2.4089   -6.6909    0.0000 N   0  0  0  0  0  0  0  0  0  0  0  0
    2.9298    9.5202    0.0000 N   0  0  0  0  0  0  0  0  0  0  0  0
    0.3317    2.0202    0.0000 C   0  0  0  0  0  0  0  0  0  0  0  0
    0.3317    3.5202    0.0000 C   0  0  0  0  0  0  0  0  0  0  0  0
   -1.0949    1.5568    0.0000 C   0  0  0  0  0  0  0  0  0  0  0  0
    1.6308    1.2702    0.0000 C   0  0  0  0  0  0  0  0  0  0  0  0
    1.6308    4.2702    0.0000 C   0  0  0  0  0  0  0  0  0  0  0  0
   -1.5583    0.1302    0.0000 C   0  0  0  0  0  0  0  0  0  0  0  0
   -1.9765    2.7702    0.0000 C   0  0  0  0  0  0  0  0  0  0  0  0
    2.9298    3.5202    0.0000 C   0  0  0  0  0  0  0  0  0  0  0  0
   -0.5547   -0.9845    0.0000 C   0  0  0  0  0  0  0  0  0  0  0  0
   -3.0256   -0.1816    0.0000 C   0  0  0  0  0  0  0  0  0  0  0  0
    1.6308    5.7702    0.0000 C   0  0  0  0  0  0  0  0  0  0  0  0
   -2.4854   -2.7231    0.0000 C   0  0  0  0  0  0  0  0  0  0  0  0
   -1.0183   -2.4111    0.0000 C   0  0  0  0  0  0  0  0  0  0  0  0
   -3.4892   -1.6083    0.0000 C   0  0  0  0  0  0  0  0  0  0  0  0
    1.6308    7.2702    0.0000 C   0  0  0  0  0  0  0  0  0  0  0  0
   -1.9452   -5.2643    0.0000 C   0  0  0  0  0  0  0  0  0  0  0  0
   -1.4051   -7.8056    0.0000 C   0  0  0  0  0  0  0  0  0  0  0  0
    0.0620   -7.4938    0.0000 C   0  0  0  0  0  0  0  0  0  0  0  0
    1.6308    8.7702    0.0000 C   0  0  0  0  0  0  0  0  0  0  0  0
   -1.8687   -9.2321    0.0000 C   0  0  0  0  0  0  0  0  0  0  0  0
   -0.8649  -10.3469    0.0000 C   0  0  0  0  0  0  0  0  0  0  0  0
    1.0658   -8.6085    0.0000 C   0  0  0  0  0  0  0  0  0  0  0  0
    0.6022  -10.0351    0.0000 C   0  0  0  0  0  0  0  0  0  0  0  0
    4.2288    8.7702    0.0000 C   0  0  0  0  0  0  0  0  0  0  0  0
    2.9298   11.0202    0.0000 C   0  0  0  0  0  0  0  0  0  0  0  0
   -1.3285  -11.7734    0.0000 C   0  0  0  0  0  0  0  0  0  0  0  0
    5.5278    9.5202    0.0000 C   0  0  0  0  0  0  0  0  0  0  0  0
    4.2288   11.7702    0.0000 C   0  0  0  0  0  0  0  0  0  0  0  0
  1 27  1  0  0  0  0
  2 11  1  0  0  0  0
  2 16  1  0  0  0  0
  3 25  2  0  0  0  0
  4 36  1  0  0  0  0
  4 37  1  0  0  0  0
  5 13  1  0  0  0  0
  5 17  2  0  0  0  0
  6 13  1  0  0  0  0
  7 21  1  0  0  0  0
  7 25  1  0  0  0  0
  8 25  1  0  0  0  0
  8 26  1  0  0  0  0
  9 28  1  0  0  0  0
  9 33  1  0  0  0  0
  9 34  1  0  0  0  0
 10 11  1  0  0  0  0
 10 12  1  0  0  0  0
 10 13  2  0  0  0  0
 11 14  2  0  0  0  0
 12 15  1  0  0  0  0
 12 16  2  0  0  0  0
 14 17  1  0  0  0  0
 14 20  1  0  0  0  0
 15 18  2  0  0  0  0
 15 19  1  0  0  0  0
 18 22  1  0  0  0  0
 19 23  2  0  0  0  0
 20 24  3  0  0  0  0
 21 22  2  0  0  0  0
 21 23  1  0  0  0  0
 24 28  1  0  0  0  0
 26 27  1  0  0  0  0
 26 29  2  0  0  0  0
 27 31  2  0  0  0  0
 29 30  1  0  0  0  0
 30 32  2  0  0  0  0
 30 35  1  0  0  0  0
 31 32  1  0  0  0  0
 33 36  1  0  0  0  0
 34 37  1  0  0  0  0
M  END
> <Value>
5.300000202445418

> <Relation>
<

> <SourceURI>
mol:CHEMBL1983640

$$$$

Generated by Molecular Materials Informatics

 18 19  0  0  0  0  0  0  0  0999 V2000
   -0.4453   -0.1968    0.0000 S   0  0  0  0  0  0  0  0  0  0  0  0
    3.5794    4.7667    0.0000 O   0  0  0  0  0  0  0  0  0  0  0  0
    6.1774    6.2667    0.0000 O   0  0  0  0  0  0  0  0  0  0  0  0
    7.4765    4.0166    0.0000 O   0  0  0  0  0  0  0  0  0  0  0  0
    4.8785    2.5166    0.0000 N   0  0  0  0  0  0  0  0  0  0  0  0
    4.8785   -0.4833    0.0000 N   0  0  0  0  0  0  0  0  0  0  0  0
   -1.3270    1.0167    0.0000 N   0  0  0  0  0  0  0  0  0  0  0  0
    3.5794    1.7667    0.0000 C   0  0  0  0  0  0  0  0  0  0  0  0
    3.5794    0.2667    0.0000 C   0  0  0  0  0  0  0  0  0  0  0  0
    0.9812    1.7667    0.0000 C   0  0  0  0  0  0  0  0  0  0  0  0
    0.9812    0.2667    0.0000 C   0  0  0  0  0  0  0  0  0  0  0  0
    2.2803    2.5166    0.0000 C   0  0  0  0  0  0  0  0  0  0  0  0
    2.2803   -0.4833    0.0000 C   0  0  0  0  0  0  0  0  0  0  0  0
   -0.4453    2.2303    0.0000 C   0  0  0  0  0  0  0  0  0  0  0  0
    4.8785    4.0166    0.0000 C   0  0  0  0  0  0  0  0  0  0  0  0
    6.1774    4.7667    0.0000 C   0  0  0  0  0  0  0  0  0  0  0  0
    4.8785   -1.9834    0.0000 C   0  0  0  0  0  0  0  0  0  0  0  0
    6.1774    0.2667    0.0000 C   0  0  0  0  0  0  0  0  0  0  0  0
  1  7  1  0  0  0  0
  1 11  1  0  0  0  0
  2 15  2  0  0  0  0
  3 16  2  0  0  0  0
  4 16  1  0  0  0  0
  5  8  1  0  0  0  0
  5 15  1  0  0  0  0
  6  9  1  0  0  0  0
  6 17  1  0  0  0  0
  6 18  1  0  0  0  0
  7 14  2  0  0  0  0
  8  9  1  0  0  0  0
  8 12  2  0  0  0  0
  9 13  2  0  0  0  0
 10 11  2  0  0  0  0
 10 12  1  0  0  0  0
 10 14  1  0  0  0  0
 11 13  1  0  0  0  0
 15 16  1  0  0  0  0
M  END
> <Value>
6.699991797446187

> <Relation>
=

> <SourceURI>
mol:CHEMBL1997023

$$$$

Generated by Molecular Materials Informatics

 30 34  0  0  0  0  0  0  0  0999 V2000
    5.3871   -3.3740    0.0000 S   0  0  0  0  0  0  0  0  0  0  0  0
   -1.0062    2.9114    0.0000 O   0  0  0  0  0  0  0  0  0  0  0  0
    7.5151   -1.6468    0.0000 N   0  0  0  0  0  0  0  0  0  0  0  0
    6.8401    0.8619    0.0000 N   0  0  0  0  0  0  0  0  0  0  0  0
    4.3298    1.5317    0.0000 N   0  0  0  0  0  0  0  0  0  0  0  0
   -1.9348    0.4848    0.0000 N   0  0  0  0  0  0  0  0  0  0  0  0
   -3.5719    2.5021    0.0000 N   0  0  0  0  0  0  0  0  0  0  0  0
    3.6691   -1.6596    0.0000 C   0  0  0  0  0  0  0  0  0  0  0  0
    5.0049   -0.9772    0.0000 C   0  0  0  0  0  0  0  0  0  0  0  0
    3.9053   -3.1409    0.0000 C   0  0  0  0  0  0  0  0  0  0  0  0
    2.2682   -1.1234    0.0000 C   0  0  0  0  0  0  0  0  0  0  0  0
    6.0668   -2.0367    0.0000 C   0  0  0  0  0  0  0  0  0  0  0  0
    1.1034   -2.0687    0.0000 C   0  0  0  0  0  0  0  0  0  0  0  0
    5.3917    0.4721    0.0000 C   0  0  0  0  0  0  0  0  0  0  0  0
    2.7406   -4.0861    0.0000 C   0  0  0  0  0  0  0  0  0  0  0  0
    1.3396   -3.5500    0.0000 C   0  0  0  0  0  0  0  0  0  0  0  0
    2.0320    0.3579    0.0000 C   0  0  0  0  0  0  0  0  0  0  0  0
   -0.2975   -1.5327    0.0000 C   0  0  0  0  0  0  0  0  0  0  0  0
   -0.5337   -0.0514    0.0000 C   0  0  0  0  0  0  0  0  0  0  0  0
    0.6311    0.8939    0.0000 C   0  0  0  0  0  0  0  0  0  0  0  0
    7.9019   -0.1976    0.0000 C   0  0  0  0  0  0  0  0  0  0  0  0
   -2.1710    1.9661    0.0000 C   0  0  0  0  0  0  0  0  0  0  0  0
   -3.8081    3.9834    0.0000 C   0  0  0  0  0  0  0  0  0  0  0  0
   -5.2090    4.5196    0.0000 C   0  0  0  0  0  0  0  0  0  0  0  0
   -2.6433    4.9287    0.0000 C   0  0  0  0  0  0  0  0  0  0  0  0
   -5.4452    6.0009    0.0000 C   0  0  0  0  0  0  0  0  0  0  0  0
   -2.8795    6.4100    0.0000 C   0  0  0  0  0  0  0  0  0  0  0  0
   -4.2804    6.9460    0.0000 C   0  0  0  0  0  0  0  0  0  0  0  0
   -6.8463    6.5369    0.0000 C   0  0  0  0  0  0  0  0  0  0  0  0
   -1.7148    7.3552    0.0000 C   0  0  0  0  0  0  0  0  0  0  0  0
  1 10  1  0  0  0  0
  1 12  1  0  0  0  0
  2 22  2  0  0  0  0
  3 12  2  0  0  0  0
  3 21  1  0  0  0  0
  4 14  1  0  0  0  0
  4 21  2  0  0  0  0
  5 14  1  0  0  0  0
  6 19  1  0  0  0  0
  6 22  1  0  0  0  0
  7 22  1  0  0  0  0
  7 23  1  0  0  0  0
  8  9  1  0  0  0  0
  8 10  2  0  0  0  0
  8 11  1  0  0  0  0
  9 12  1  0  0  0  0
  9 14  2  0  0  0  0
 10 15  1  0  0  0  0
 11 13  1  0  0  0  0
 11 17  2  0  0  0  0
 13 16  1  0  0  0  0
 13 18  2  0  0  0  0
 15 16  1  0  0  0  0
 17 20  1  0  0  0  0
 18 19  1  0  0  0  0
 19 20  2  0  0  0  0
 23 24  2  0  0  0  0
 23 25  1  0  0  0  0
 24 26  1  0  0  0  0
 25 27  2  0  0  0  0
 26 28  2  0  0  0  0
 26 29  1  0  0  0  0
 27 28  1  0  0  0  0
 27 30  1  0  0  0  0
M  END
> <Value>
5.899998417198648

> <Relation>
<

> <SourceURI>
mol:CHEMBL1964687

$$$$

Generated by Molecular Materials Informatics

 28 31  0  0  0  0  0  0  0  0999 V2000
    9.5801    5.4000    0.0000 Cl  0  0  0  0  0  0  0  0  0  0  0  0
   -0.8121    5.4000    0.0000 F   0  0  0  0  0  0  0  0  0  0  0  0
    1.7859    0.9000    0.0000 F   0  0  0  0  0  0  0  0  0  0  0  0
   -0.8121    2.4000    0.0000 O   0  0  0  0  0  0  0  0  0  0  0  0
   -3.5377   -1.8135    0.0000 N   0  0  0  0  0  0  0  0  0  0  0  0
   -0.8121   -2.1000    0.0000 N   0  0  0  0  0  0  0  0  0  0  0  0
    4.3841    5.4000    0.0000 N   0  0  0  0  0  0  0  0  0  0  0  0
    5.6830    3.1500    0.0000 N   0  0  0  0  0  0  0  0  0  0  0  0
    8.2812    3.1500    0.0000 N   0  0  0  0  0  0  0  0  0  0  0  0
    6.9821    0.9000    0.0000 N   0  0  0  0  0  0  0  0  0  0  0  0
   -2.1112    0.1500    0.0000 C   0  0  0  0  0  0  0  0  0  0  0  0
   -0.8121    0.9000    0.0000 C   0  0  0  0  0  0  0  0  0  0  0  0
    0.4868    3.1500    0.0000 C   0  0  0  0  0  0  0  0  0  0  0  0
   -2.1112   -1.3500    0.0000 C   0  0  0  0  0  0  0  0  0  0  0  0
   -3.5377    0.6135    0.0000 C   0  0  0  0  0  0  0  0  0  0  0  0
    0.4868    4.6500    0.0000 C   0  0  0  0  0  0  0  0  0  0  0  0
    1.7859    2.4000    0.0000 C   0  0  0  0  0  0  0  0  0  0  0  0
    3.0850    4.6500    0.0000 C   0  0  0  0  0  0  0  0  0  0  0  0
    1.7859    5.4000    0.0000 C   0  0  0  0  0  0  0  0  0  0  0  0
    3.0850    3.1500    0.0000 C   0  0  0  0  0  0  0  0  0  0  0  0
    0.4868    0.1500    0.0000 C   0  0  0  0  0  0  0  0  0  0  0  0
   -4.4194   -0.6000    0.0000 C   0  0  0  0  0  0  0  0  0  0  0  0
    5.6830    4.6500    0.0000 C   0  0  0  0  0  0  0  0  0  0  0  0
    0.4868   -1.3500    0.0000 C   0  0  0  0  0  0  0  0  0  0  0  0
    6.9821    5.4000    0.0000 C   0  0  0  0  0  0  0  0  0  0  0  0
    6.9821    2.4000    0.0000 C   0  0  0  0  0  0  0  0  0  0  0  0
    8.2812    4.6500    0.0000 C   0  0  0  0  0  0  0  0  0  0  0  0
   -4.0014    2.0402    0.0000 C   0  0  0  0  0  0  0  0  0  0  0  0
  1 27  1  0  0  0  0
  2 16  1  0  0  0  0
  3 17  1  0  0  0  0
  4 12  1  0  0  0  0
  4 13  1  0  0  0  0
  5 14  1  0  0  0  0
  5 22  1  0  0  0  0
  6 14  2  0  0  0  0
  6 24  1  0  0  0  0
  7 18  1  0  0  0  0
  7 23  1  0  0  0  0
  8 23  1  0  0  0  0
  8 26  2  0  0  0  0
  9 26  1  0  0  0  0
  9 27  2  0  0  0  0
 10 26  1  0  0  0  0
 11 12  2  0  0  0  0
 11 14  1  0  0  0  0
 11 15  1  0  0  0  0
 12 21  1  0  0  0  0
 13 16  2  0  0  0  0
 13 17  1  0  0  0  0
 15 22  2  0  0  0  0
 15 28  1  0  0  0  0
 16 19  1  0  0  0  0
 17 20  2  0  0  0  0
 18 19  2  0  0  0  0
 18 20  1  0  0  0  0
 21 24  2  0  0  0  0
 23 25  2  0  0  0  0
 25 27  1  0  0  0  0
M  END
> <Value>
5.499999678657065

> <Relation>
<

> <SourceURI>
mol:CHEMBL1971943

$$$$

Generated by Molecular Materials Informatics

 21 23  0  0  0  0  0  0  0  0999 V2000
    3.3710   -4.6270    0.0000 Br  0  0  0  0  0  0  0  0  0  0  0  0
    0.6455    4.0864    0.0000 S   0  0  0  0  0  0  0  0  0  0  0  0
    5.9691   -0.1271    0.0000 F   0  0  0  0  0  0  0  0  0  0  0  0
    5.9691   -3.1270    0.0000 F   0  0  0  0  0  0  0  0  0  0  0  0
   -2.4860    1.5739    0.0000 O   0  0  0  0  0  0  0  0  0  0  0  0
    4.6701    3.6228    0.0000 N   0  0  0  0  0  0  0  0  0  0  0  0
   -2.4860    4.1719    0.0000 N   0  0  0  0  0  0  0  0  0  0  0  0
    2.0720    2.1228    0.0000 C   0  0  0  0  0  0  0  0  0  0  0  0
    3.3710    1.3729    0.0000 C   0  0  0  0  0  0  0  0  0  0  0  0
    3.3710   -0.1271    0.0000 C   0  0  0  0  0  0  0  0  0  0  0  0
    2.0720    3.6228    0.0000 C   0  0  0  0  0  0  0  0  0  0  0  0
    4.6701   -0.8771    0.0000 C   0  0  0  0  0  0  0  0  0  0  0  0
   -0.2361    2.8728    0.0000 C   0  0  0  0  0  0  0  0  0  0  0  0
    0.6455    1.6594    0.0000 C   0  0  0  0  0  0  0  0  0  0  0  0
    4.6701    2.1228    0.0000 C   0  0  0  0  0  0  0  0  0  0  0  0
    4.6701   -2.3770    0.0000 C   0  0  0  0  0  0  0  0  0  0  0  0
    3.3710    4.3728    0.0000 C   0  0  0  0  0  0  0  0  0  0  0  0
    2.0720   -0.8771    0.0000 C   0  0  0  0  0  0  0  0  0  0  0  0
    3.3710   -3.1270    0.0000 C   0  0  0  0  0  0  0  0  0  0  0  0
   -1.7361    2.8728    0.0000 C   0  0  0  0  0  0  0  0  0  0  0  0
    2.0720   -2.3770    0.0000 C   0  0  0  0  0  0  0  0  0  0  0  0
  1 19  1  0  0  0  0
  2 11  1  0  0  0  0
  2 13  1  0  0  0  0
  3 12  1  0  0  0  0
  4 16  1  0  0  0  0
  5 20  2  0  0  0  0
  6 15  2  0  0  0  0
  6 17  1  0  0  0  0
  7 20  1  0  0  0  0
  8  9  2  0  0  0  0
  8 11  1  0  0  0  0
  8 14  1  0  0  0  0
  9 10  1  0  0  0  0
  9 15  1  0  0  0  0
 10 12  1  0  0  0  0
 10 18  2  0  0  0  0
 11 17  2  0  0  0  0
 12 16  2  0  0  0  0
 13 14  2  0  0  0  0
 13 20  1  0  0  0  0
 16 19  1  0  0  0  0
 18 21  1  0  0  0  0
 19 21  2  0  0  0  0
M  END
> <Value>
6.0999990348465305

> <Relation>
=

> <SourceURI>
mol:CHEMBL1999918

$$$$

Generated by Molecular Materials Informatics

 35 39  0  0  0  0  0  0  0  0999 V2000
   -0.7684    4.5817    0.0000 S   0  0  0  0  0  0  0  0  0  0  0  0
   -2.0824   -6.0930    0.0000 O   0  0  0  0  0  0  0  0  0  0  0  0
    3.8632   -8.8133    0.0000 O   0  0  0  0  0  0  0  0  0  0  0  0
    3.2563    2.6181    0.0000 N   0  0  0  0  0  0  0  0  0  0  0  0
    1.2072    8.6765    0.0000 N   0  0  0  0  0  0  0  0  0  0  0  0
    1.9572    0.3681    0.0000 N   0  0  0  0  0  0  0  0  0  0  0  0
    2.7072    8.6765    0.0000 N   0  0  0  0  0  0  0  0  0  0  0  0
   -2.6226   -3.5517    0.0000 N   0  0  0  0  0  0  0  0  0  0  0  0
   -0.1517   -4.3546    0.0000 N   0  0  0  0  0  0  0  0  0  0  0  0
    0.6581    2.6181    0.0000 C   0  0  0  0  0  0  0  0  0  0  0  0
    0.6581    4.1181    0.0000 C   0  0  0  0  0  0  0  0  0  0  0  0
   -0.7684    2.1546    0.0000 C   0  0  0  0  0  0  0  0  0  0  0  0
    1.9572    4.8681    0.0000 C   0  0  0  0  0  0  0  0  0  0  0  0
    1.9572    1.8681    0.0000 C   0  0  0  0  0  0  0  0  0  0  0  0
   -1.2319    0.7281    0.0000 C   0  0  0  0  0  0  0  0  0  0  0  0
    1.9572    6.3681    0.0000 C   0  0  0  0  0  0  0  0  0  0  0  0
   -1.6501    3.3681    0.0000 C   0  0  0  0  0  0  0  0  0  0  0  0
    3.2563    4.1181    0.0000 C   0  0  0  0  0  0  0  0  0  0  0  0
    0.7436    7.2499    0.0000 C   0  0  0  0  0  0  0  0  0  0  0  0
   -0.2282   -0.3866    0.0000 C   0  0  0  0  0  0  0  0  0  0  0  0
   -2.6992    0.4163    0.0000 C   0  0  0  0  0  0  0  0  0  0  0  0
    3.1707    7.2499    0.0000 C   0  0  0  0  0  0  0  0  0  0  0  0
   -2.1590   -2.1252    0.0000 C   0  0  0  0  0  0  0  0  0  0  0  0
   -0.6919   -1.8132    0.0000 C   0  0  0  0  0  0  0  0  0  0  0  0
   -3.1628   -1.0104    0.0000 C   0  0  0  0  0  0  0  0  0  0  0  0
    0.3256    9.8899    0.0000 C   0  0  0  0  0  0  0  0  0  0  0  0
   -1.6188   -4.6664    0.0000 C   0  0  0  0  0  0  0  0  0  0  0  0
    0.8521   -5.4692    0.0000 C   0  0  0  0  0  0  0  0  0  0  0  0
    2.3192   -5.1573    0.0000 C   0  0  0  0  0  0  0  0  0  0  0  0
    0.3885   -6.8959    0.0000 C   0  0  0  0  0  0  0  0  0  0  0  0
    2.8594   -7.6986    0.0000 C   0  0  0  0  0  0  0  0  0  0  0  0
    3.3230   -6.2721    0.0000 C   0  0  0  0  0  0  0  0  0  0  0  0
    1.3923   -8.0106    0.0000 C   0  0  0  0  0  0  0  0  0  0  0  0
    3.3996  -10.2399    0.0000 C   0  0  0  0  0  0  0  0  0  0  0  0
    4.4034  -11.3546    0.0000 C   0  0  0  0  0  0  0  0  0  0  0  0
  1 11  1  0  0  0  0
  1 17  1  0  0  0  0
  2 27  2  0  0  0  0
  3 31  1  0  0  0  0
  3 34  1  0  0  0  0
  4 14  1  0  0  0  0
  4 18  2  0  0  0  0
  5  7  1  0  0  0  0
  5 19  1  0  0  0  0
  5 26  1  0  0  0  0
  6 14  1  0  0  0  0
  7 22  2  0  0  0  0
  8 23  1  0  0  0  0
  8 27  1  0  0  0  0
  9 27  1  0  0  0  0
  9 28  1  0  0  0  0
 10 11  1  0  0  0  0
 10 12  1  0  0  0  0
 10 14  2  0  0  0  0
 11 13  2  0  0  0  0
 12 15  1  0  0  0  0
 12 17  2  0  0  0  0
 13 16  1  0  0  0  0
 13 18  1  0  0  0  0
 15 20  2  0  0  0  0
 15 21  1  0  0  0  0
 16 19  2  0  0  0  0
 16 22  1  0  0  0  0
 20 24  1  0  0  0  0
 21 25  2  0  0  0  0
 23 24  2  0  0  0  0
 23 25  1  0  0  0  0
 28 29  2  0  0  0  0
 28 30  1  0  0  0  0
 29 32  1  0  0  0  0
 30 33  2  0  0  0  0
 31 32  2  0  0  0  0
 31 33  1  0  0  0  0
 34 35  1  0  0  0  0
M  END
> <Value>
6.0

> <Relation>
=

> <SourceURI>
mol:CHEMBL1974254

$$$$

Generated by Molecular Materials Informatics

 25 28  0  0  0  0  0  0  0  0999 V2000
    4.4493   -3.6000    0.0000 Cl  0  0  0  0  0  0  0  0  0  0  0  0
    1.8511   -2.1000    0.0000 S   0  0  0  0  0  0  0  0  0  0  0  0
    0.5520    3.1500    0.0000 O   0  0  0  0  0  0  0  0  0  0  0  0
    7.0473    5.4000    0.0000 O   0  0  0  0  0  0  0  0  0  0  0  0
    1.8511    0.9000    0.0000 N   0  0  0  0  0  0  0  0  0  0  0  0
    5.7482    0.1500    0.0000 N   0  0  0  0  0  0  0  0  0  0  0  0
    3.1502    0.1500    0.0000 C   0  0  0  0  0  0  0  0  0  0  0  0
    0.5520    0.1500    0.0000 C   0  0  0  0  0  0  0  0  0  0  0  0
    3.1502   -1.3500    0.0000 C   0  0  0  0  0  0  0  0  0  0  0  0
    0.5520   -1.3500    0.0000 C   0  0  0  0  0  0  0  0  0  0  0  0
    1.8511    2.4000    0.0000 C   0  0  0  0  0  0  0  0  0  0  0  0
    4.4493   -2.1000    0.0000 C   0  0  0  0  0  0  0  0  0  0  0  0
    4.4493    0.9000    0.0000 C   0  0  0  0  0  0  0  0  0  0  0  0
    3.1502    3.1500    0.0000 C   0  0  0  0  0  0  0  0  0  0  0  0
   -0.7469    0.9000    0.0000 C   0  0  0  0  0  0  0  0  0  0  0  0
   -0.7469   -2.1000    0.0000 C   0  0  0  0  0  0  0  0  0  0  0  0
    5.7482   -1.3500    0.0000 C   0  0  0  0  0  0  0  0  0  0  0  0
   -2.0460    0.1500    0.0000 C   0  0  0  0  0  0  0  0  0  0  0  0
   -2.0460   -1.3500    0.0000 C   0  0  0  0  0  0  0  0  0  0  0  0
    3.1502    4.6500    0.0000 C   0  0  0  0  0  0  0  0  0  0  0  0
    4.4493    2.4000    0.0000 C   0  0  0  0  0  0  0  0  0  0  0  0
    5.7482    4.6500    0.0000 C   0  0  0  0  0  0  0  0  0  0  0  0
    4.4493    5.4000    0.0000 C   0  0  0  0  0  0  0  0  0  0  0  0
    5.7482    3.1500    0.0000 C   0  0  0  0  0  0  0  0  0  0  0  0
    7.0473    6.9000    0.0000 C   0  0  0  0  0  0  0  0  0  0  0  0
  1 12  1  0  0  0  0
  2  9  1  0  0  0  0
  2 10  1  0  0  0  0
  3 11  2  0  0  0  0
  4 22  1  0  0  0  0
  4 25  1  0  0  0  0
  5  7  1  0  0  0  0
  5  8  1  0  0  0  0
  5 11  1  0  0  0  0
  6 13  1  0  0  0  0
  6 17  2  0  0  0  0
  7  9  1  0  0  0  0
  7 13  2  0  0  0  0
  8 10  1  0  0  0  0
  8 15  2  0  0  0  0
  9 12  2  0  0  0  0
 10 16  2  0  0  0  0
 11 14  1  0  0  0  0
 12 17  1  0  0  0  0
 14 20  2  0  0  0  0
 14 21  1  0  0  0  0
 15 18  1  0  0  0  0
 16 19  1  0  0  0  0
 18 19  2  0  0  0  0
 20 23  1  0  0  0  0
 21 24  2  0  0  0  0
 22 23  2  0  0  0  0
 22 24  1  0  0  0  0
M  END
> <Value>
5.899998417198648

> <Relation>
<

> <SourceURI>
mol:CHEMBL1988537

$$$$

Generated by Molecular Materials Informatics

 26 28  0  0  0  0  0  0  0  0999 V2000
    3.1177    0.6750    0.0000 O   0  0  0  0  0  0  0  0  0  0  0  0
    8.3137    6.6748    0.0000 O   0  0  0  0  0  0  0  0  0  0  0  0
    5.7158    0.6750    0.0000 N   0  0  0  0  0  0  0  0  0  0  0  0
    4.4167   -9.0747    0.0000 N   0  0  0  0  0  0  0  0  0  0  0  0
    4.4167   -4.5749    0.0000 C   0  0  0  0  0  0  0  0  0  0  0  0
    4.4167   -1.5750    0.0000 C   0  0  0  0  0  0  0  0  0  0  0  0
    3.1177   -3.8249    0.0000 C   0  0  0  0  0  0  0  0  0  0  0  0
    4.4167   -6.0748    0.0000 C   0  0  0  0  0  0  0  0  0  0  0  0
    4.4167   -0.0750    0.0000 C   0  0  0  0  0  0  0  0  0  0  0  0
    3.1177   -2.3250    0.0000 C   0  0  0  0  0  0  0  0  0  0  0  0
    5.7158   -3.8249    0.0000 C   0  0  0  0  0  0  0  0  0  0  0  0
    5.7158   -2.3250    0.0000 C   0  0  0  0  0  0  0  0  0  0  0  0
    5.7158    2.1749    0.0000 C   0  0  0  0  0  0  0  0  0  0  0  0
    7.0147    2.9249    0.0000 C   0  0  0  0  0  0  0  0  0  0  0  0
    3.1177   -6.8248    0.0000 C   0  0  0  0  0  0  0  0  0  0  0  0
    5.7158   -6.8248    0.0000 C   0  0  0  0  0  0  0  0  0  0  0  0
    7.0147    4.4248    0.0000 C   0  0  0  0  0  0  0  0  0  0  0  0
    8.3137    5.1748    0.0000 C   0  0  0  0  0  0  0  0  0  0  0  0
    8.3137    2.1749    0.0000 C   0  0  0  0  0  0  0  0  0  0  0  0
    1.8188   -4.5749    0.0000 C   0  0  0  0  0  0  0  0  0  0  0  0
    9.6128    4.4248    0.0000 C   0  0  0  0  0  0  0  0  0  0  0  0
    9.6128    2.9249    0.0000 C   0  0  0  0  0  0  0  0  0  0  0  0
    3.1177   -8.3248    0.0000 C   0  0  0  0  0  0  0  0  0  0  0  0
    5.7158   -8.3248    0.0000 C   0  0  0  0  0  0  0  0  0  0  0  0
    4.4167    2.9249    0.0000 C   0  0  0  0  0  0  0  0  0  0  0  0
    7.0147    7.4248    0.0000 C   0  0  0  0  0  0  0  0  0  0  0  0
  1  9  2  0  0  0  0
  2 18  1  0  0  0  0
  2 26  1  0  0  0  0
  3  9  1  0  0  0  0
  3 13  1  0  0  0  0
  4 23  2  0  0  0  0
  4 24  1  0  0  0  0
  5  7  1  0  0  0  0
  5  8  1  0  0  0  0
  5 11  2  0  0  0  0
  6  9  1  0  0  0  0
  6 10  1  0  0  0  0
  6 12  2  0  0  0  0
  7 10  2  0  0  0  0
  7 20  1  0  0  0  0
  8 15  2  0  0  0  0
  8 16  1  0  0  0  0
 11 12  1  0  0  0  0
 13 14  1  0  0  0  0
 13 25  1  0  0  0  0
 14 17  2  0  0  0  0
 14 19  1  0  0  0  0
 15 23  1  0  0  0  0
 16 24  2  0  0  0  0
 17 18  1  0  0  0  0
 18 21  2  0  0  0  0
 19 22  2  0  0  0  0
 21 22  1  0  0  0  0
M  END
> <Value>
5.899998417198648

> <Relation>
<

> <SourceURI>
mol:CHEMBL1969049

$$$$

Generated by Molecular Materials Informatics

 27 30  0  0  0  0  0  0  0  0999 V2000
   -1.1514   -3.5955    0.0000 O   0  0  0  0  0  0  0  0  0  0  0  0
   -0.5347    5.3407    0.0000 O   0  0  0  0  0  0  0  0  0  0  0  0
    1.5742   -3.8820    0.0000 N   0  0  0  0  0  0  0  0  0  0  0  0
    2.8732   -1.6320    0.0000 N   0  0  0  0  0  0  0  0  0  0  0  0
    1.5742    0.6180    0.0000 N   0  0  0  0  0  0  0  0  0  0  0  0
   -3.0056    4.5378    0.0000 N   0  0  0  0  0  0  0  0  0  0  0  0
   -2.4654    7.0791    0.0000 N   0  0  0  0  0  0  0  0  0  0  0  0
    0.2752   -1.6320    0.0000 C   0  0  0  0  0  0  0  0  0  0  0  0
   -1.1514   -1.1686    0.0000 C   0  0  0  0  0  0  0  0  0  0  0  0
    0.2752   -3.1320    0.0000 C   0  0  0  0  0  0  0  0  0  0  0  0
   -1.6150    0.2582    0.0000 C   0  0  0  0  0  0  0  0  0  0  0  0
    1.5742   -0.8820    0.0000 C   0  0  0  0  0  0  0  0  0  0  0  0
   -2.0330   -2.3820    0.0000 C   0  0  0  0  0  0  0  0  0  0  0  0
   -3.0821    0.5700    0.0000 C   0  0  0  0  0  0  0  0  0  0  0  0
   -0.6112    1.3729    0.0000 C   0  0  0  0  0  0  0  0  0  0  0  0
    2.8732   -3.1320    0.0000 C   0  0  0  0  0  0  0  0  0  0  0  0
   -2.5419    3.1113    0.0000 C   0  0  0  0  0  0  0  0  0  0  0  0
   -3.5458    1.9965    0.0000 C   0  0  0  0  0  0  0  0  0  0  0  0
   -1.0748    2.7995    0.0000 C   0  0  0  0  0  0  0  0  0  0  0  0
   -2.0018    5.6525    0.0000 C   0  0  0  0  0  0  0  0  0  0  0  0
   -1.4618    8.1938    0.0000 C   0  0  0  0  0  0  0  0  0  0  0  0
   -1.9252    9.6206    0.0000 C   0  0  0  0  0  0  0  0  0  0  0  0
    0.0055    7.8820    0.0000 C   0  0  0  0  0  0  0  0  0  0  0  0
    0.5457   10.4233    0.0000 C   0  0  0  0  0  0  0  0  0  0  0  0
   -0.9216   10.7353    0.0000 C   0  0  0  0  0  0  0  0  0  0  0  0
    1.0093    8.9967    0.0000 C   0  0  0  0  0  0  0  0  0  0  0  0
    1.5493   11.5380    0.0000 C   0  0  0  0  0  0  0  0  0  0  0  0
  1 10  1  0  0  0  0
  1 13  1  0  0  0  0
  2 20  2  0  0  0  0
  3 10  2  0  0  0  0
  3 16  1  0  0  0  0
  4 12  1  0  0  0  0
  4 16  2  0  0  0  0
  5 12  1  0  0  0  0
  6 17  1  0  0  0  0
  6 20  1  0  0  0  0
  7 20  1  0  0  0  0
  7 21  1  0  0  0  0
  8  9  1  0  0  0  0
  8 10  1  0  0  0  0
  8 12  2  0  0  0  0
  9 11  1  0  0  0  0
  9 13  2  0  0  0  0
 11 14  2  0  0  0  0
 11 15  1  0  0  0  0
 14 18  1  0  0  0  0
 15 19  2  0  0  0  0
 17 18  2  0  0  0  0
 17 19  1  0  0  0  0
 21 22  2  0  0  0  0
 21 23  1  0  0  0  0
 22 25  1  0  0  0  0
 23 26  2  0  0  0  0
 24 25  2  0  0  0  0
 24 26  1  0  0  0  0
 24 27  1  0  0  0  0
M  END
> <Value>
5.899998417198648

> <Relation>
<

> <SourceURI>
mol:CHEMBL2005828

$$$$

Generated by Molecular Materials Informatics

 29 32  0  0  0  0  0  0  0  0999 V2000
    0.6926   -2.8206    0.0000 C   0  0  0  0  0  0  0  0  0  0  0  0
    0.6470   -1.3242    0.0000 C   0  0  0  0  0  0  0  0  0  0  0  0
    2.1282   -3.2536    0.0000 N   0  0  0  0  0  0  0  0  0  0  0  0
    2.0750   -0.8229    0.0000 S   0  0  0  0  0  0  0  0  0  0  0  0
    2.9714   -2.0079    0.0000 C   0  0  0  0  0  0  0  0  0  0  0  0
    0.0089    4.0842    0.0000 C   0  0  0  0  0  0  0  0  0  0  0  0
   -1.3584    3.4840    0.0000 N   0  0  0  0  0  0  0  0  0  0  0  0
   -0.5380   -0.4127    0.0000 C   0  0  0  0  0  0  0  0  0  0  0  0
   -0.4545   -3.7777    0.0000 C   0  0  0  0  0  0  0  0  0  0  0  0
   -1.5407    1.9800    0.0000 C   0  0  0  0  0  0  0  0  0  0  0  0
   -2.9307    1.3952    0.0000 N   0  0  0  0  0  0  0  0  0  0  0  0
   -0.3557    1.0762    0.0000 C   0  0  0  0  0  0  0  0  0  0  0  0
    0.1836    5.5805    0.0000 O   0  0  0  0  0  0  0  0  0  0  0  0
   -0.1962   -5.2589    0.0000 C   0  0  0  0  0  0  0  0  0  0  0  0
    1.2318    3.1878    0.0000 C   0  0  0  0  0  0  0  0  0  0  0  0
   -3.1130   -0.0937    0.0000 C   0  0  0  0  0  0  0  0  0  0  0  0
   -1.3432   -6.2160    0.0000 C   0  0  0  0  0  0  0  0  0  0  0  0
   -1.9129   -0.9976    0.0000 C   0  0  0  0  0  0  0  0  0  0  0  0
    4.4754   -1.9623    0.0000 C   0  0  0  0  0  0  0  0  0  0  0  0
   -1.8597   -3.2612    0.0000 C   0  0  0  0  0  0  0  0  0  0  0  0
   -3.0219   -4.2183    0.0000 C   0  0  0  0  0  0  0  0  0  0  0  0
    1.2167    1.6914    0.0000 C   0  0  0  0  0  0  0  0  0  0  0  0
    2.5156    3.9398    0.0000 C   0  0  0  0  0  0  0  0  0  0  0  0
   -2.7484   -5.6995    0.0000 C   0  0  0  0  0  0  0  0  0  0  0  0
   -1.0849   -7.6972    0.0000 C   0  0  0  0  0  0  0  0  0  0  0  0
    5.5464   -3.0333    0.0000 C   0  0  0  0  0  0  0  0  0  0  0  0
    2.5156    0.9394    0.0000 C   0  0  0  0  0  0  0  0  0  0  0  0
    3.8145    3.1955    0.0000 C   0  0  0  0  0  0  0  0  0  0  0  0
    3.8145    1.6838    0.0000 C   0  0  0  0  0  0  0  0  0  0  0  0
  2  1  2  0  0  0  0
  3  1  1  0  0  0  0
  4  2  1  0  0  0  0
  5  3  2  0  0  0  0
  6  7  1  0  0  0  0
  7 10  1  0  0  0  0
  8  2  1  0  0  0  0
  9  1  1  0  0  0  0
 10 12  1  0  0  0  0
 11 16  1  0  0  0  0
 12  8  2  0  0  0  0
 13  6  2  0  0  0  0
 14  9  1  0  0  0  0
 15  6  1  0  0  0  0
 16 18  2  0  0  0  0
 17 14  2  0  0  0  0
 18  8  1  0  0  0  0
 19  5  1  0  0  0  0
 20  9  2  0  0  0  0
 21 20  1  0  0  0  0
 22 15  2  0  0  0  0
 23 15  1  0  0  0  0
 24 21  2  0  0  0  0
 25 17  1  0  0  0  0
 26 19  1  0  0  0  0
 27 22  1  0  0  0  0
 28 23  2  0  0  0  0
 29 28  1  0  0  0  0
  5  4  1  0  0  0  0
 17 24  1  0  0  0  0
 10 11  2  0  0  0  0
 27 29  2  0  0  0  0
M  END
> <Value>
5.899998417198648

> <Relation>
<

> <SourceURI>
mol:CHEMBL363648

$$$$

Generated by Molecular Materials Informatics

 32 34  0  0  0  0  0  0  0  0999 V2000
    0.7804    8.2525    0.0000 C   0  0  0  0  0  0  0  0  0  0  0  0
    0.7804    9.7525    0.0000 C   0  0  0  0  0  0  0  0  0  0  0  0
   -1.8179    3.7600    0.0000 C   0  0  0  0  0  0  0  0  0  0  0  0
   -0.5225   -7.4900    0.0000 C   0  0  0  0  0  0  0  0  0  0  0  0
   -0.5225   -5.9900    0.0000 C   0  0  0  0  0  0  0  0  0  0  0  0
   -1.8179    5.2600    0.0000 N   0  0  0  0  0  0  0  0  0  0  0  0
   -1.8179   -5.2400    0.0000 C   0  0  0  0  0  0  0  0  0  0  0  0
    2.0759    7.5025    0.0000 C   0  0  0  0  0  0  0  0  0  0  0  0
   -3.1210    3.0100    0.0000 N   0  0  0  0  0  0  0  0  0  0  0  0
   -0.5225    7.5025    0.0000 C   0  0  0  0  0  0  0  0  0  0  0  0
    0.7804   -5.2400    0.0000 N   0  0  0  0  0  0  0  0  0  0  0  0
   -1.8179   -3.7400    0.0000 C   0  0  0  0  0  0  0  0  0  0  0  0
   -0.5225    6.0100    0.0000 C   0  0  0  0  0  0  0  0  0  0  0  0
   -0.5225    3.0100    0.0000 O   0  0  0  0  0  0  0  0  0  0  0  0
    0.7804   -8.2400    0.0000 O   0  0  0  0  0  0  0  0  0  0  0  0
   -3.1210   -2.9900    0.0000 O   0  0  0  0  0  0  0  0  0  0  0  0
    2.2804    9.7525    0.0000 F   0  0  0  0  0  0  0  0  0  0  0  0
    0.7804   11.2525    0.0000 F   0  0  0  0  0  0  0  0  0  0  0  0
   -0.7196    9.7525    0.0000 F   0  0  0  0  0  0  0  0  0  0  0  0
    2.0759    6.0100    0.0000 C   0  0  0  0  0  0  0  0  0  0  0  0
   -1.8179   -8.2400    0.0000 N   0  0  0  0  0  0  0  0  0  0  0  0
   -3.1210    1.5100    0.0000 C   0  0  0  0  0  0  0  0  0  0  0  0
   -3.1210   -1.4900    0.0000 C   0  0  0  0  0  0  0  0  0  0  0  0
    0.7804   -3.7400    0.0000 C   0  0  0  0  0  0  0  0  0  0  0  0
    0.7804    5.2600    0.0000 C   0  0  0  0  0  0  0  0  0  0  0  0
    3.3790    8.2525    0.0000 Cl  0  0  0  0  0  0  0  0  0  0  0  0
   -0.5225   -2.9900    0.0000 C   0  0  0  0  0  0  0  0  0  0  0  0
   -1.8179    0.7600    0.0000 C   0  0  0  0  0  0  0  0  0  0  0  0
   -4.4165    0.7600    0.0000 C   0  0  0  0  0  0  0  0  0  0  0  0
   -1.8179   -0.7400    0.0000 C   0  0  0  0  0  0  0  0  0  0  0  0
   -4.4165   -0.7400    0.0000 C   0  0  0  0  0  0  0  0  0  0  0  0
   -1.8179   -9.7400    0.0000 C   0  0  0  0  0  0  0  0  0  0  0  0
  2  1  1  0  0  0  0
  3  6  1  0  0  0  0
  4  5  1  0  0  0  0
  5  7  2  0  0  0  0
  6 13  1  0  0  0  0
  7 12  1  0  0  0  0
  8  1  1  0  0  0  0
  9  3  1  0  0  0  0
 10  1  2  0  0  0  0
 11 24  2  0  0  0  0
 12 16  1  0  0  0  0
 13 10  1  0  0  0  0
 14  3  2  0  0  0  0
 15  4  2  0  0  0  0
 16 23  1  0  0  0  0
 17  2  1  0  0  0  0
 18  2  1  0  0  0  0
 19  2  1  0  0  0  0
 20  8  2  0  0  0  0
 21  4  1  0  0  0  0
 22  9  1  0  0  0  0
 23 30  1  0  0  0  0
 24 27  1  0  0  0  0
 25 13  2  0  0  0  0
 26  8  1  0  0  0  0
 27 12  2  0  0  0  0
 28 22  1  0  0  0  0
 29 22  2  0  0  0  0
 30 28  2  0  0  0  0
 31 29  1  0  0  0  0
 32 21  1  0  0  0  0
 25 20  1  0  0  0  0
 23 31  2  0  0  0  0
  5 11  1  0  0  0  0
M  END
> <Value>
5.499999678657065

> <Relation>
<

> <SourceURI>
mol:CHEMBL1336

$$$$

Generated by Molecular Materials Informatics

 27 30  0  0  0  0  0  0  0  0999 V2000
   -4.4914    2.6696    0.0000 Cl  0  0  0  0  0  0  0  0  0  0  0  0
   -5.3419    9.4907    0.0000 O   0  0  0  0  0  0  0  0  0  0  0  0
   -0.0897    1.7342    0.0000 N   0  0  0  0  0  0  0  0  0  0  0  0
   -0.6299   -3.2342    0.0000 N   0  0  0  0  0  0  0  0  0  0  0  0
   -2.0205    3.4725    0.0000 N   0  0  0  0  0  0  0  0  0  0  0  0
    2.0957   -3.5207    0.0000 N   0  0  0  0  0  0  0  0  0  0  0  0
    0.4504    4.2755    0.0000 N   0  0  0  0  0  0  0  0  0  0  0  0
   -3.4112    7.7524    0.0000 N   0  0  0  0  0  0  0  0  0  0  0  0
   -0.6299   -0.8073    0.0000 C   0  0  0  0  0  0  0  0  0  0  0  0
    0.7966   -1.2707    0.0000 C   0  0  0  0  0  0  0  0  0  0  0  0
   -1.0936    0.6194    0.0000 C   0  0  0  0  0  0  0  0  0  0  0  0
    0.7966   -2.7707    0.0000 C   0  0  0  0  0  0  0  0  0  0  0  0
   -1.5116   -2.0207    0.0000 C   0  0  0  0  0  0  0  0  0  0  0  0
   -0.5534    3.1607    0.0000 C   0  0  0  0  0  0  0  0  0  0  0  0
   -2.5607    0.9313    0.0000 C   0  0  0  0  0  0  0  0  0  0  0  0
    2.0957   -0.5207    0.0000 C   0  0  0  0  0  0  0  0  0  0  0  0
   -3.0243    2.3578    0.0000 C   0  0  0  0  0  0  0  0  0  0  0  0
   -0.0132    5.7020    0.0000 C   0  0  0  0  0  0  0  0  0  0  0  0
    3.3946   -1.2707    0.0000 C   0  0  0  0  0  0  0  0  0  0  0  0
    3.3946   -2.7707    0.0000 C   0  0  0  0  0  0  0  0  0  0  0  0
   -1.4803    6.0138    0.0000 C   0  0  0  0  0  0  0  0  0  0  0  0
   -1.9439    7.4404    0.0000 C   0  0  0  0  0  0  0  0  0  0  0  0
    0.9906    6.8167    0.0000 C   0  0  0  0  0  0  0  0  0  0  0  0
   -0.9403    8.5551    0.0000 C   0  0  0  0  0  0  0  0  0  0  0  0
    0.5270    8.2433    0.0000 C   0  0  0  0  0  0  0  0  0  0  0  0
   -3.8747    9.1789    0.0000 C   0  0  0  0  0  0  0  0  0  0  0  0
   -2.8710   10.2936    0.0000 C   0  0  0  0  0  0  0  0  0  0  0  0
  1 17  1  0  0  0  0
  2 26  2  0  0  0  0
  3 11  2  0  0  0  0
  3 14  1  0  0  0  0
  4 12  1  0  0  0  0
  4 13  1  0  0  0  0
  5 14  2  0  0  0  0
  5 17  1  0  0  0  0
  6 12  2  0  0  0  0
  6 20  1  0  0  0  0
  7 14  1  0  0  0  0
  7 18  1  0  0  0  0
  8 22  1  0  0  0  0
  8 26  1  0  0  0  0
  9 10  1  0  0  0  0
  9 11  1  0  0  0  0
  9 13  2  0  0  0  0
 10 12  1  0  0  0  0
 10 16  2  0  0  0  0
 11 15  1  0  0  0  0
 15 17  2  0  0  0  0
 16 19  1  0  0  0  0
 18 21  1  0  0  0  0
 18 23  1  0  0  0  0
 19 20  2  0  0  0  0
 21 22  1  0  0  0  0
 22 24  1  0  0  0  0
 23 25  1  0  0  0  0
 24 25  1  0  0  0  0
 26 27  1  0  0  0  0
M  END
> <Value>
6.900008766455316

> <Relation>
=

> <SourceURI>
mol:CHEMBL1980178

$$$$

Generated by Molecular Materials Informatics

 15 16  0  0  0  0  0  0  0  0999 V2000
    2.3812    2.3021    0.0000 Br  0  0  0  0  0  0  0  0  0  0  0  0
    2.3812   -3.6979    0.0000 Cl  0  0  0  0  0  0  0  0  0  0  0  0
   -0.3444    0.5156    0.0000 S   0  0  0  0  0  0  0  0  0  0  0  0
   -3.4761   -1.9970    0.0000 O   0  0  0  0  0  0  0  0  0  0  0  0
   -0.8079   -3.3381    0.0000 N   0  0  0  0  0  0  0  0  0  0  0  0
   -3.4761    0.6010    0.0000 N   0  0  0  0  0  0  0  0  0  0  0  0
    1.0821   -1.4479    0.0000 C   0  0  0  0  0  0  0  0  0  0  0  0
    1.0821    0.0521    0.0000 C   0  0  0  0  0  0  0  0  0  0  0  0
   -0.3444   -1.9115    0.0000 C   0  0  0  0  0  0  0  0  0  0  0  0
   -1.2261   -0.6979    0.0000 C   0  0  0  0  0  0  0  0  0  0  0  0
    2.3812   -2.1979    0.0000 C   0  0  0  0  0  0  0  0  0  0  0  0
    2.3812    0.8021    0.0000 C   0  0  0  0  0  0  0  0  0  0  0  0
   -2.7261   -0.6979    0.0000 C   0  0  0  0  0  0  0  0  0  0  0  0
    3.6803   -1.4479    0.0000 C   0  0  0  0  0  0  0  0  0  0  0  0
    3.6803    0.0521    0.0000 C   0  0  0  0  0  0  0  0  0  0  0  0
  1 12  1  0  0  0  0
  2 11  1  0  0  0  0
  3  8  1  0  0  0  0
  3 10  1  0  0  0  0
  4 13  2  0  0  0  0
  5  9  1  0  0  0  0
  6 13  1  0  0  0  0
  7  8  1  0  0  0  0
  7  9  1  0  0  0  0
  7 11  2  0  0  0  0
  8 12  2  0  0  0  0
  9 10  2  0  0  0  0
 10 13  1  0  0  0  0
 11 14  1  0  0  0  0
 12 15  1  0  0  0  0
 14 15  2  0  0  0  0
M  END
> <Value>
5.899998417198648

> <Relation>
=

> <SourceURI>
mol:CHEMBL1998611

$$$$

Generated by Molecular Materials Informatics

 35 38  0  0  0  0  0  0  0  0999 V2000
    7.7401   -0.0988    0.0000 C   0  0  0  0  0  0  0  0  0  0  0  0
    7.7401   -1.5988    0.0000 C   0  0  0  0  0  0  0  0  0  0  0  0
    9.0392   -2.3488    0.0000 C   0  0  0  0  0  0  0  0  0  0  0  0
   10.3383   -1.5988    0.0000 C   0  0  0  0  0  0  0  0  0  0  0  0
   10.3383   -0.0988    0.0000 C   0  0  0  0  0  0  0  0  0  0  0  0
    9.0392    0.6512    0.0000 C   0  0  0  0  0  0  0  0  0  0  0  0
   11.6374   -2.3488    0.0000 C   0  0  0  0  0  0  0  0  0  0  0  0
   12.9363   -1.5988    0.0000 O   0  0  0  0  0  0  0  0  0  0  0  0
   11.6374   -3.8488    0.0000 N   0  0  0  0  0  0  0  0  0  0  0  0
   10.3383   -4.5988    0.0000 C   0  0  0  0  0  0  0  0  0  0  0  0
   12.9363   -4.5988    0.0000 C   0  0  0  0  0  0  0  0  0  0  0  0
   10.3383   -6.0988    0.0000 C   0  0  0  0  0  0  0  0  0  0  0  0
    9.0392   -6.8488    0.0000 C   0  0  0  0  0  0  0  0  0  0  0  0
    9.0392   -3.8488    0.0000 C   0  0  0  0  0  0  0  0  0  0  0  0
    7.7401   -4.5988    0.0000 C   0  0  0  0  0  0  0  0  0  0  0  0
    7.7401   -6.0988    0.0000 C   0  0  0  0  0  0  0  0  0  0  0  0
    6.3136   -6.5623    0.0000 N   0  0  0  0  0  0  0  0  0  0  0  0
    5.4320   -5.3488    0.0000 C   0  0  0  0  0  0  0  0  0  0  0  0
    6.3136   -4.1352    0.0000 N   0  0  0  0  0  0  0  0  0  0  0  0
    3.9320   -5.3488    0.0000 N   0  0  0  0  0  0  0  0  0  0  0  0
    3.1820   -6.6477    0.0000 C   0  0  0  0  0  0  0  0  0  0  0  0
    1.6820   -6.6477    0.0000 C   0  0  0  0  0  0  0  0  0  0  0  0
    3.9320   -7.9468    0.0000 O   0  0  0  0  0  0  0  0  0  0  0  0
    0.9320   -7.9468    0.0000 C   0  0  0  0  0  0  0  0  0  0  0  0
   -0.5680   -7.9468    0.0000 C   0  0  0  0  0  0  0  0  0  0  0  0
   -1.3180   -6.6477    0.0000 C   0  0  0  0  0  0  0  0  0  0  0  0
   -0.5680   -5.3488    0.0000 C   0  0  0  0  0  0  0  0  0  0  0  0
    0.9320   -5.3488    0.0000 C   0  0  0  0  0  0  0  0  0  0  0  0
    5.8502   -7.9888    0.0000 C   0  0  0  0  0  0  0  0  0  0  0  0
    6.8538   -9.1035    0.0000 C   0  0  0  0  0  0  0  0  0  0  0  0
    6.3903  -10.5303    0.0000 C   0  0  0  0  0  0  0  0  0  0  0  0
    4.9231  -10.8421    0.0000 O   0  0  0  0  0  0  0  0  0  0  0  0
    7.3940  -11.6448    0.0000 N   0  0  0  0  0  0  0  0  0  0  0  0
   -2.8180   -6.6477    0.0000 C   0  0  0  0  0  0  0  0  0  0  0  0
   -4.3180   -6.6477    0.0000 N   0  0  0  0  0  0  0  0  0  0  0  0
  1  6  1  0  0  0  0
  7  9  1  0  0  0  0
 16 17  1  0  0  0  0
 17 18  1  0  0  0  0
 18 19  2  0  0  0  0
 19 15  1  0  0  0  0
  2  3  1  0  0  0  0
 18 20  1  0  0  0  0
  9 10  1  0  0  0  0
 20 21  1  0  0  0  0
  3  4  1  0  0  0  0
 21 22  1  0  0  0  0
  9 11  1  0  0  0  0
 21 23  2  0  0  0  0
  4  5  1  0  0  0  0
 22 24  2  0  0  0  0
 10 12  2  0  0  0  0
 24 25  1  0  0  0  0
  5  6  1  0  0  0  0
 25 26  2  0  0  0  0
 12 13  1  0  0  0  0
 26 27  1  0  0  0  0
 13 16  2  0  0  0  0
 27 28  2  0  0  0  0
 28 22  1  0  0  0  0
 17 29  1  0  0  0  0
 15 14  2  0  0  0  0
 29 30  1  0  0  0  0
 14 10  1  0  0  0  0
 30 31  1  0  0  0  0
 15 16  1  0  0  0  0
 31 32  2  0  0  0  0
  4  7  1  0  0  0  0
 31 33  1  0  0  0  0
  1  2  1  0  0  0  0
 26 34  1  0  0  0  0
  7  8  2  0  0  0  0
 34 35  3  0  0  0  0
M  END
> <Value>
5.899998417198648

> <Relation>
<

> <SourceURI>
mol:CHEMBL485556

$$$$

Generated by Molecular Materials Informatics

 23 25  0  0  0  0  0  0  0  0999 V2000
    6.5927   -2.4259    0.0000 Cl  0  0  0  0  0  0  0  0  0  0  0  0
    8.0927   -5.0239    0.0000 Cl  0  0  0  0  0  0  0  0  0  0  0  0
   -3.7788   -3.7250    0.0000 O   0  0  0  0  0  0  0  0  0  0  0  0
   -1.2181   -6.2856    0.0000 O   0  0  0  0  0  0  0  0  0  0  0  0
   -1.2181   -1.1643    0.0000 N   0  0  0  0  0  0  0  0  0  0  0  0
    1.3427   -3.7250    0.0000 N   0  0  0  0  0  0  0  0  0  0  0  0
   -5.1152    1.0857    0.0000 N   0  0  0  0  0  0  0  0  0  0  0  0
   -1.2181   -2.6643    0.0000 C   0  0  0  0  0  0  0  0  0  0  0  0
   -0.1573   -3.7250    0.0000 C   0  0  0  0  0  0  0  0  0  0  0  0
   -2.2788   -3.7250    0.0000 C   0  0  0  0  0  0  0  0  0  0  0  0
   -1.2181   -4.7856    0.0000 C   0  0  0  0  0  0  0  0  0  0  0  0
   -2.5172   -0.4143    0.0000 C   0  0  0  0  0  0  0  0  0  0  0  0
    2.0927   -5.0239    0.0000 C   0  0  0  0  0  0  0  0  0  0  0  0
    3.5927   -5.0239    0.0000 C   0  0  0  0  0  0  0  0  0  0  0  0
    4.3427   -3.7250    0.0000 C   0  0  0  0  0  0  0  0  0  0  0  0
    5.8427   -3.7250    0.0000 C   0  0  0  0  0  0  0  0  0  0  0  0
    4.3427   -6.3230    0.0000 C   0  0  0  0  0  0  0  0  0  0  0  0
   -2.5172    1.0857    0.0000 C   0  0  0  0  0  0  0  0  0  0  0  0
   -3.8161   -1.1643    0.0000 C   0  0  0  0  0  0  0  0  0  0  0  0
    6.5927   -5.0239    0.0000 C   0  0  0  0  0  0  0  0  0  0  0  0
    5.8427   -6.3230    0.0000 C   0  0  0  0  0  0  0  0  0  0  0  0
   -3.8161    1.8357    0.0000 C   0  0  0  0  0  0  0  0  0  0  0  0
   -5.1152   -0.4143    0.0000 C   0  0  0  0  0  0  0  0  0  0  0  0
  1 16  1  0  0  0  0
  2 20  1  0  0  0  0
  3 10  2  0  0  0  0
  4 11  2  0  0  0  0
  5  8  1  0  0  0  0
  5 12  1  0  0  0  0
  6  9  1  0  0  0  0
  6 13  1  0  0  0  0
  7 22  2  0  0  0  0
  7 23  1  0  0  0  0
  8  9  2  0  0  0  0
  8 10  1  0  0  0  0
  9 11  1  0  0  0  0
 10 11  1  0  0  0  0
 12 18  2  0  0  0  0
 12 19  1  0  0  0  0
 13 14  1  0  0  0  0
 14 15  1  0  0  0  0
 14 17  2  0  0  0  0
 15 16  2  0  0  0  0
 16 20  1  0  0  0  0
 17 21  1  0  0  0  0
 18 22  1  0  0  0  0
 19 23  2  0  0  0  0
 20 21  2  0  0  0  0
M  END
> <Value>
5.899998417198648

> <Relation>
<

> <SourceURI>
mol:CHEMBL1975900

$$$$

Generated by Molecular Materials Informatics

 17 18  0  0  0  0  0  0  0  0999 V2000
    3.1279   -0.2548    0.0000 S   0  0  0  0  0  0  0  0  0  0  0  0
    1.9145    2.1268    0.0000 S   0  0  0  0  0  0  0  0  0  0  0  0
    0.2828   -2.8950    0.0000 O   0  0  0  0  0  0  0  0  0  0  0  0
    4.0894   -8.0626    0.0000 O   0  0  0  0  0  0  0  0  0  0  0  0
    1.1057   -8.3762    0.0000 O   0  0  0  0  0  0  0  0  0  0  0  0
    0.7010   -0.2548    0.0000 N   0  0  0  0  0  0  0  0  0  0  0  0
    2.6645   -1.6815    0.0000 C   0  0  0  0  0  0  0  0  0  0  0  0
    1.1645   -1.6815    0.0000 C   0  0  0  0  0  0  0  0  0  0  0  0
    2.9361   -4.2653    0.0000 C   0  0  0  0  0  0  0  0  0  0  0  0
    3.5461   -2.8950    0.0000 C   0  0  0  0  0  0  0  0  0  0  0  0
    1.9145    0.6268    0.0000 C   0  0  0  0  0  0  0  0  0  0  0  0
    3.2075   -6.8491    0.0000 C   0  0  0  0  0  0  0  0  0  0  0  0
    3.8177   -5.4788    0.0000 C   0  0  0  0  0  0  0  0  0  0  0  0
    1.7159   -7.0058    0.0000 C   0  0  0  0  0  0  0  0  0  0  0  0
    1.4443   -4.4220    0.0000 C   0  0  0  0  0  0  0  0  0  0  0  0
    0.8341   -5.7924    0.0000 C   0  0  0  0  0  0  0  0  0  0  0  0
    3.4792   -9.4329    0.0000 C   0  0  0  0  0  0  0  0  0  0  0  0
  1  7  1  0  0  0  0
  1 11  1  0  0  0  0
  2 11  2  0  0  0  0
  3  8  2  0  0  0  0
  4 12  1  0  0  0  0
  4 17  1  0  0  0  0
  5 14  1  0  0  0  0
  6  8  1  0  0  0  0
  6 11  1  0  0  0  0
  7  8  1  0  0  0  0
  7 10  2  0  0  0  0
 10  9  1  0  0  0  0
  9 13  1  0  0  0  0
  9 15  2  0  0  0  0
 12 13  2  0  0  0  0
 12 14  1  0  0  0  0
 14 16  2  0  0  0  0
 15 16  1  0  0  0  0
M  END
> <Value>
7.400007822415902

> <Relation>
=

> <SourceURI>
mol:CHEMBL1973098

$$$$

Generated by Molecular Materials Informatics

 27 29  0  0  0  0  0  0  0  0999 V2000
    7.7926   -3.0501    0.0000 S   0  0  0  0  0  0  0  0  0  0  0  0
    8.5426   -4.3492    0.0000 O   0  0  0  0  0  0  0  0  0  0  0  0
    7.0427   -1.7513    0.0000 O   0  0  0  0  0  0  0  0  0  0  0  0
   -5.1211   -4.4288    0.0000 O   0  0  0  0  0  0  0  0  0  0  0  0
   -2.7269    1.1632    0.0000 N   0  0  0  0  0  0  0  0  0  0  0  0
   -3.6085   -0.0502    0.0000 N   0  0  0  0  0  0  0  0  0  0  0  0
   -3.1903   -2.6903    0.0000 N   0  0  0  0  0  0  0  0  0  0  0  0
    6.4936   -3.8001    0.0000 N   0  0  0  0  0  0  0  0  0  0  0  0
   -1.3004   -0.8002    0.0000 C   0  0  0  0  0  0  0  0  0  0  0  0
   -1.3004    0.6997    0.0000 C   0  0  0  0  0  0  0  0  0  0  0  0
   -2.7269   -1.2638    0.0000 C   0  0  0  0  0  0  0  0  0  0  0  0
    1.2977   -0.8002    0.0000 C   0  0  0  0  0  0  0  0  0  0  0  0
   -0.0013   -1.5502    0.0000 C   0  0  0  0  0  0  0  0  0  0  0  0
    2.5966   -1.5502    0.0000 C   0  0  0  0  0  0  0  0  0  0  0  0
   -0.0013    1.4497    0.0000 C   0  0  0  0  0  0  0  0  0  0  0  0
    1.2977    0.6997    0.0000 C   0  0  0  0  0  0  0  0  0  0  0  0
    5.1947   -3.0501    0.0000 C   0  0  0  0  0  0  0  0  0  0  0  0
    3.8957   -0.8002    0.0000 C   0  0  0  0  0  0  0  0  0  0  0  0
    2.5966   -3.0501    0.0000 C   0  0  0  0  0  0  0  0  0  0  0  0
    5.1947   -1.5502    0.0000 C   0  0  0  0  0  0  0  0  0  0  0  0
    3.8957   -3.8001    0.0000 C   0  0  0  0  0  0  0  0  0  0  0  0
   -4.6575   -3.0021    0.0000 C   0  0  0  0  0  0  0  0  0  0  0  0
    9.0917   -2.3002    0.0000 C   0  0  0  0  0  0  0  0  0  0  0  0
   -5.6613   -1.8874    0.0000 C   0  0  0  0  0  0  0  0  0  0  0  0
   10.3907   -3.0501    0.0000 C   0  0  0  0  0  0  0  0  0  0  0  0
   -5.1977   -0.4609    0.0000 C   0  0  0  0  0  0  0  0  0  0  0  0
   11.6896   -2.3002    0.0000 C   0  0  0  0  0  0  0  0  0  0  0  0
  1  2  2  0  0  0  0
  1  3  2  0  0  0  0
  1  8  1  0  0  0  0
  1 23  1  0  0  0  0
  4 22  2  0  0  0  0
  5  6  1  0  0  0  0
  5 10  1  0  0  0  0
  6 11  2  0  0  0  0
  7 11  1  0  0  0  0
  7 22  1  0  0  0  0
  8 17  1  0  0  0  0
  9 10  1  0  0  0  0
  9 11  1  0  0  0  0
  9 13  2  0  0  0  0
 10 15  2  0  0  0  0
 12 13  1  0  0  0  0
 12 14  1  0  0  0  0
 12 16  2  0  0  0  0
 14 18  2  0  0  0  0
 14 19  1  0  0  0  0
 15 16  1  0  0  0  0
 17 20  2  0  0  0  0
 17 21  1  0  0  0  0
 18 20  1  0  0  0  0
 19 21  2  0  0  0  0
 22 24  1  0  0  0  0
 23 25  1  0  0  0  0
 24 26  1  0  0  0  0
 25 27  1  0  0  0  0
M  END
> <Value>
6.399996913372259

> <Relation>
=

> <SourceURI>
mol:CHEMBL1972221

$$$$

Generated by Molecular Materials Informatics

 27 30  0  0  0  0  0  0  0  0999 V2000
    5.2235    0.7601    0.0000 S   0  0  0  0  0  0  0  0  0  0  0  0
    0.2515    5.7647    0.0000 F   0  0  0  0  0  0  0  0  0  0  0  0
    9.3388   -2.9012    0.0000 O   0  0  0  0  0  0  0  0  0  0  0  0
    2.4662   -2.7684    0.0000 N   0  0  0  0  0  0  0  0  0  0  0  0
   -2.4741    3.9783    0.0000 N   0  0  0  0  0  0  0  0  0  0  0  0
    0.5355   -1.0299    0.0000 N   0  0  0  0  0  0  0  0  0  0  0  0
    8.7986   -5.4424    0.0000 N   0  0  0  0  0  0  0  0  0  0  0  0
    3.0064   -0.2270    0.0000 C   0  0  0  0  0  0  0  0  0  0  0  0
    2.8495    1.2647    0.0000 C   0  0  0  0  0  0  0  0  0  0  0  0
    4.4735   -0.5390    0.0000 C   0  0  0  0  0  0  0  0  0  0  0  0
    1.5506    2.0147    0.0000 C   0  0  0  0  0  0  0  0  0  0  0  0
    2.0026   -1.3417    0.0000 C   0  0  0  0  0  0  0  0  0  0  0  0
   -1.0476    2.0147    0.0000 C   0  0  0  0  0  0  0  0  0  0  0  0
    4.9371   -1.9655    0.0000 C   0  0  0  0  0  0  0  0  0  0  0  0
   -1.0476    3.5147    0.0000 C   0  0  0  0  0  0  0  0  0  0  0  0
    4.2199    1.8748    0.0000 C   0  0  0  0  0  0  0  0  0  0  0  0
    0.2515    1.2647    0.0000 C   0  0  0  0  0  0  0  0  0  0  0  0
    0.2515    4.2647    0.0000 C   0  0  0  0  0  0  0  0  0  0  0  0
    1.5506    3.5147    0.0000 C   0  0  0  0  0  0  0  0  0  0  0  0
    3.9333   -3.0803    0.0000 C   0  0  0  0  0  0  0  0  0  0  0  0
   -2.4741    1.5512    0.0000 C   0  0  0  0  0  0  0  0  0  0  0  0
   -3.3558    2.7647    0.0000 C   0  0  0  0  0  0  0  0  0  0  0  0
    6.4042   -2.2773    0.0000 C   0  0  0  0  0  0  0  0  0  0  0  0
    6.8679   -3.7039    0.0000 C   0  0  0  0  0  0  0  0  0  0  0  0
   -4.8558    2.7647    0.0000 C   0  0  0  0  0  0  0  0  0  0  0  0
    8.3351   -4.0159    0.0000 C   0  0  0  0  0  0  0  0  0  0  0  0
   10.2659   -5.7543    0.0000 C   0  0  0  0  0  0  0  0  0  0  0  0
  1 10  1  0  0  0  0
  1 16  1  0  0  0  0
  2 18  1  0  0  0  0
  3 26  2  0  0  0  0
  4 12  2  0  0  0  0
  4 20  1  0  0  0  0
  5 15  1  0  0  0  0
  5 22  1  0  0  0  0
  6 12  1  0  0  0  0
  7 26  1  0  0  0  0
  7 27  1  0  0  0  0
  8  9  1  0  0  0  0
  8 10  2  0  0  0  0
  8 12  1  0  0  0  0
  9 11  1  0  0  0  0
  9 16  2  0  0  0  0
 10 14  1  0  0  0  0
 11 17  1  0  0  0  0
 11 19  2  0  0  0  0
 13 15  1  0  0  0  0
 13 17  2  0  0  0  0
 13 21  1  0  0  0  0
 14 20  2  0  0  0  0
 23 14  1  0  0  0  0
 15 18  2  0  0  0  0
 18 19  1  0  0  0  0
 21 22  2  0  0  0  0
 22 25  1  0  0  0  0
 23 24  2  0  0  0  0
 24 26  1  0  0  0  0
M  END
> <Value>
5.899998417198648

> <Relation>
<

> <SourceURI>
mol:CHEMBL2006778

$$$$

Generated by Molecular Materials Informatics

 31 32  0  0  0  0  0  0  0  0999 V2000
   14.8575   -3.1630    0.0000 C   0  0  0  0  0  0  0  0  0  0  0  0
   14.8552   -4.6679    0.0000 C   0  0  0  0  0  0  0  0  0  0  0  0
   16.1515   -5.4184    0.0000 N   0  0  0  0  0  0  0  0  0  0  0  0
   17.4593   -4.6668    0.0000 C   0  0  0  0  0  0  0  0  0  0  0  0
   17.4537   -3.1559    0.0000 C   0  0  0  0  0  0  0  0  0  0  0  0
   16.1479   -2.4125    0.0000 C   0  0  0  0  0  0  0  0  0  0  0  0
   16.1410   -0.9125    0.0000 N   0  0  0  0  0  0  0  0  0  0  0  0
   18.7490   -2.3992    0.0000 C   0  0  0  0  0  0  0  0  0  0  0  0
   20.0353   -1.6381    0.0000 N   0  0  0  0  0  0  0  0  0  0  0  0
   13.5552   -5.4159    0.0000 N   0  0  0  0  0  0  0  0  0  0  0  0
   12.2572   -4.6641    0.0000 C   0  0  0  0  0  0  0  0  0  0  0  0
   10.9572   -5.4123    0.0000 C   0  0  0  0  0  0  0  0  0  0  0  0
   12.2593   -3.1641    0.0000 O   0  0  0  0  0  0  0  0  0  0  0  0
   18.7592   -5.4157    0.0000 O   0  0  0  0  0  0  0  0  0  0  0  0
   18.7606   -6.9157    0.0000 C   0  0  0  0  0  0  0  0  0  0  0  0
   20.0602   -7.6644    0.0000 C   0  0  0  0  0  0  0  0  0  0  0  0
   17.4622   -7.6668    0.0000 C   0  0  0  0  0  0  0  0  0  0  0  0
    9.6592   -4.6603    0.0000 C   0  0  0  0  0  0  0  0  0  0  0  0
    9.6652   -3.1632    0.0000 C   0  0  0  0  0  0  0  0  0  0  0  0
    8.3688   -2.4117    0.0000 C   0  0  0  0  0  0  0  0  0  0  0  0
    7.0668   -3.1599    0.0000 C   0  0  0  0  0  0  0  0  0  0  0  0
    7.0694   -4.6677    0.0000 C   0  0  0  0  0  0  0  0  0  0  0  0
    8.3670   -5.4124    0.0000 C   0  0  0  0  0  0  0  0  0  0  0  0
    8.3714   -6.9124    0.0000 O   0  0  0  0  0  0  0  0  0  0  0  0
    7.0746   -7.6664    0.0000 C   0  0  0  0  0  0  0  0  0  0  0  0
    8.3715   -0.9117    0.0000 O   0  0  0  0  0  0  0  0  0  0  0  0
    9.6723   -0.1641    0.0000 C   0  0  0  0  0  0  0  0  0  0  0  0
    5.7677   -2.4097    0.0000 S   0  0  0  0  0  0  0  0  0  0  0  0
    6.5023   -1.1048    0.0000 O   0  0  0  0  0  0  0  0  0  0  0  0
    5.0023   -3.6965    0.0000 O   0  0  0  0  0  0  0  0  0  0  0  0
    4.4605   -1.6548    0.0000 C   0  0  0  0  0  0  0  0  0  0  0  0
  3  4  2  0  0  0  0
 15 16  1  0  0  0  0
  5  8  1  0  0  0  0
 15 17  1  0  0  0  0
 12 18  1  0  0  0  0
  8  9  3  0  0  0  0
 18 19  2  0  0  0  0
  4  5  1  0  0  0  0
 19 20  1  0  0  0  0
  2 10  1  0  0  0  0
 20 21  2  0  0  0  0
  2  3  1  0  0  0  0
 21 22  1  0  0  0  0
 10 11  1  0  0  0  0
 22 23  2  0  0  0  0
 23 18  1  0  0  0  0
  5  6  2  0  0  0  0
 23 24  1  0  0  0  0
 11 12  1  0  0  0  0
 24 25  1  0  0  0  0
  6  1  1  0  0  0  0
 20 26  1  0  0  0  0
 11 13  2  0  0  0  0
 26 27  1  0  0  0  0
  1  2  2  0  0  0  0
 21 28  1  0  0  0  0
  4 14  1  0  0  0  0
 28 29  2  0  0  0  0
  6  7  1  0  0  0  0
 28 30  2  0  0  0  0
 14 15  1  0  0  0  0
 28 31  1  0  0  0  0
M  END
> <Value>
5.899998417198648

> <Relation>
<

> <SourceURI>
mol:CHEMBL378627

$$$$

Generated by Molecular Materials Informatics

 26 29  0  0  0  0  0  0  0  0999 V2000
    4.0099    3.2640    0.0000 F   0  0  0  0  0  0  0  0  0  0  0  0
    6.6079   -1.2360    0.0000 F   0  0  0  0  0  0  0  0  0  0  0  0
    4.0099   -1.2360    0.0000 O   0  0  0  0  0  0  0  0  0  0  0  0
   -2.6128   -1.6994    0.0000 N   0  0  0  0  0  0  0  0  0  0  0  0
    0.1128   -1.9860    0.0000 N   0  0  0  0  0  0  0  0  0  0  0  0
    2.7108    1.0140    0.0000 N   0  0  0  0  0  0  0  0  0  0  0  0
   -1.1863    0.2640    0.0000 C   0  0  0  0  0  0  0  0  0  0  0  0
   -2.6128    0.7275    0.0000 C   0  0  0  0  0  0  0  0  0  0  0  0
   -1.1863   -1.2360    0.0000 C   0  0  0  0  0  0  0  0  0  0  0  0
    1.4117    0.2640    0.0000 C   0  0  0  0  0  0  0  0  0  0  0  0
    0.1128    1.0140    0.0000 C   0  0  0  0  0  0  0  0  0  0  0  0
   -3.0765    2.1542    0.0000 C   0  0  0  0  0  0  0  0  0  0  0  0
    5.3090    1.0140    0.0000 C   0  0  0  0  0  0  0  0  0  0  0  0
   -3.4945   -0.4860    0.0000 C   0  0  0  0  0  0  0  0  0  0  0  0
    4.0099    0.2640    0.0000 C   0  0  0  0  0  0  0  0  0  0  0  0
    1.4117   -1.2360    0.0000 C   0  0  0  0  0  0  0  0  0  0  0  0
    5.3090    2.5140    0.0000 C   0  0  0  0  0  0  0  0  0  0  0  0
    6.6079    0.2640    0.0000 C   0  0  0  0  0  0  0  0  0  0  0  0
   -4.5436    2.4660    0.0000 C   0  0  0  0  0  0  0  0  0  0  0  0
   -2.0726    3.2689    0.0000 C   0  0  0  0  0  0  0  0  0  0  0  0
    6.6079    3.2640    0.0000 C   0  0  0  0  0  0  0  0  0  0  0  0
    7.9070    1.0140    0.0000 C   0  0  0  0  0  0  0  0  0  0  0  0
    7.9070    2.5140    0.0000 C   0  0  0  0  0  0  0  0  0  0  0  0
   -5.0072    3.8926    0.0000 C   0  0  0  0  0  0  0  0  0  0  0  0
   -2.5363    4.6955    0.0000 C   0  0  0  0  0  0  0  0  0  0  0  0
   -4.0034    5.0073    0.0000 C   0  0  0  0  0  0  0  0  0  0  0  0
  1 17  1  0  0  0  0
  2 18  1  0  0  0  0
  3 15  2  0  0  0  0
  4  9  1  0  0  0  0
  4 14  1  0  0  0  0
  5  9  2  0  0  0  0
  5 16  1  0  0  0  0
  6 10  1  0  0  0  0
  6 15  1  0  0  0  0
  7  8  1  0  0  0  0
  7  9  1  0  0  0  0
  7 11  2  0  0  0  0
  8 12  1  0  0  0  0
  8 14  2  0  0  0  0
 10 11  1  0  0  0  0
 10 16  2  0  0  0  0
 12 19  2  0  0  0  0
 12 20  1  0  0  0  0
 13 15  1  0  0  0  0
 13 17  1  0  0  0  0
 13 18  2  0  0  0  0
 17 21  2  0  0  0  0
 18 22  1  0  0  0  0
 19 24  1  0  0  0  0
 20 25  2  0  0  0  0
 21 23  1  0  0  0  0
 22 23  2  0  0  0  0
 24 26  2  0  0  0  0
 25 26  1  0  0  0  0
M  END
> <Value>
5.899998417198648

> <Relation>
<

> <SourceURI>
mol:CHEMBL1996979

$$$$

Generated by Molecular Materials Informatics

 30 34  0  0  0  0  0  0  0  0999 V2000
    5.6492   -3.2819    0.0000 S   0  0  0  0  0  0  0  0  0  0  0  0
   -0.7441    3.0035    0.0000 O   0  0  0  0  0  0  0  0  0  0  0  0
    7.7772   -1.5548    0.0000 N   0  0  0  0  0  0  0  0  0  0  0  0
    7.1021    0.9540    0.0000 N   0  0  0  0  0  0  0  0  0  0  0  0
    4.5919    1.6238    0.0000 N   0  0  0  0  0  0  0  0  0  0  0  0
   -1.6727    0.5769    0.0000 N   0  0  0  0  0  0  0  0  0  0  0  0
   -3.3098    2.5942    0.0000 N   0  0  0  0  0  0  0  0  0  0  0  0
    3.9312   -1.5675    0.0000 C   0  0  0  0  0  0  0  0  0  0  0  0
    5.2670   -0.8851    0.0000 C   0  0  0  0  0  0  0  0  0  0  0  0
    4.1674   -3.0488    0.0000 C   0  0  0  0  0  0  0  0  0  0  0  0
    2.5303   -1.0313    0.0000 C   0  0  0  0  0  0  0  0  0  0  0  0
    6.3288   -1.9446    0.0000 C   0  0  0  0  0  0  0  0  0  0  0  0
    1.3655   -1.9766    0.0000 C   0  0  0  0  0  0  0  0  0  0  0  0
    5.6537    0.5642    0.0000 C   0  0  0  0  0  0  0  0  0  0  0  0
    3.0026   -3.9941    0.0000 C   0  0  0  0  0  0  0  0  0  0  0  0
    1.6017   -3.4579    0.0000 C   0  0  0  0  0  0  0  0  0  0  0  0
    2.2941    0.4500    0.0000 C   0  0  0  0  0  0  0  0  0  0  0  0
   -0.0354   -1.4406    0.0000 C   0  0  0  0  0  0  0  0  0  0  0  0
   -0.2716    0.0407    0.0000 C   0  0  0  0  0  0  0  0  0  0  0  0
    0.8931    0.9860    0.0000 C   0  0  0  0  0  0  0  0  0  0  0  0
    8.1639   -0.1055    0.0000 C   0  0  0  0  0  0  0  0  0  0  0  0
   -1.9089    2.0582    0.0000 C   0  0  0  0  0  0  0  0  0  0  0  0
   -3.5460    4.0755    0.0000 C   0  0  0  0  0  0  0  0  0  0  0  0
   -4.9469    4.6117    0.0000 C   0  0  0  0  0  0  0  0  0  0  0  0
   -5.1831    6.0930    0.0000 C   0  0  0  0  0  0  0  0  0  0  0  0
   -2.3813    5.0208    0.0000 C   0  0  0  0  0  0  0  0  0  0  0  0
   -4.0184    7.0381    0.0000 C   0  0  0  0  0  0  0  0  0  0  0  0
   -2.6174    6.5021    0.0000 C   0  0  0  0  0  0  0  0  0  0  0  0
   -6.5842    6.6290    0.0000 C   0  0  0  0  0  0  0  0  0  0  0  0
   -7.7490    5.6839    0.0000 C   0  0  0  0  0  0  0  0  0  0  0  0
  1 10  1  0  0  0  0
  1 12  1  0  0  0  0
  2 22  2  0  0  0  0
  3 12  2  0  0  0  0
  3 21  1  0  0  0  0
  4 14  1  0  0  0  0
  4 21  2  0  0  0  0
  5 14  1  0  0  0  0
  6 19  1  0  0  0  0
  6 22  1  0  0  0  0
  7 22  1  0  0  0  0
  7 23  1  0  0  0  0
  8  9  1  0  0  0  0
  8 10  2  0  0  0  0
  8 11  1  0  0  0  0
  9 12  1  0  0  0  0
  9 14  2  0  0  0  0
 10 15  1  0  0  0  0
 11 13  1  0  0  0  0
 11 17  2  0  0  0  0
 13 16  1  0  0  0  0
 13 18  2  0  0  0  0
 15 16  1  0  0  0  0
 17 20  1  0  0  0  0
 18 19  1  0  0  0  0
 19 20  2  0  0  0  0
 23 24  2  0  0  0  0
 23 26  1  0  0  0  0
 24 25  1  0  0  0  0
 25 27  2  0  0  0  0
 25 29  1  0  0  0  0
 26 28  2  0  0  0  0
 27 28  1  0  0  0  0
 29 30  1  0  0  0  0
M  END
> <Value>
5.899998417198648

> <Relation>
<

> <SourceURI>
mol:CHEMBL1968406

$$$$

Generated by Molecular Materials Informatics

 11 12  0  0  0  0  0  0  0  0999 V2000
    3.8772    1.9125    0.0000 Br  0  0  0  0  0  0  0  0  0  0  0  0
   -3.8283    0.4125    0.0000 O   0  0  0  0  0  0  0  0  0  0  0  0
   -1.4466    1.6260    0.0000 N   0  0  0  0  0  0  0  0  0  0  0  0
   -1.4466   -0.8010    0.0000 N   0  0  0  0  0  0  0  0  0  0  0  0
    1.2791   -1.0875    0.0000 N   0  0  0  0  0  0  0  0  0  0  0  0
   -0.0200    1.1625    0.0000 C   0  0  0  0  0  0  0  0  0  0  0  0
   -0.0200   -0.3375    0.0000 C   0  0  0  0  0  0  0  0  0  0  0  0
   -2.3282    0.4125    0.0000 C   0  0  0  0  0  0  0  0  0  0  0  0
    1.2791    1.9125    0.0000 C   0  0  0  0  0  0  0  0  0  0  0  0
    2.5780    1.1625    0.0000 C   0  0  0  0  0  0  0  0  0  0  0  0
    2.5780   -0.3375    0.0000 C   0  0  0  0  0  0  0  0  0  0  0  0
  1 10  1  0  0  0  0
  2  8  2  0  0  0  0
  3  6  1  0  0  0  0
  3  8  1  0  0  0  0
  4  7  1  0  0  0  0
  4  8  1  0  0  0  0
  5  7  2  0  0  0  0
  5 11  1  0  0  0  0
  6  7  1  0  0  0  0
  6  9  2  0  0  0  0
  9 10  1  0  0  0  0
 10 11  2  0  0  0  0
M  END
> <Value>
4.900000142057633

> <Relation>
=

> <SourceURI>
mol:CHEMBL1975921

$$$$

Generated by Molecular Materials Informatics

 31 34  0  0  0  0  0  0  0  0999 V2000
   -6.8535   -9.0630    0.0000 Cl  0  0  0  0  0  0  0  0  0  0  0  0
    0.7929    4.2857    0.0000 S   0  0  0  0  0  0  0  0  0  0  0  0
    2.2195    6.8220    0.0000 O   0  0  0  0  0  0  0  0  0  0  0  0
   -3.5322   -3.0449    0.0000 O   0  0  0  0  0  0  0  0  0  0  0  0
    4.8176    2.3220    0.0000 N   0  0  0  0  0  0  0  0  0  0  0  0
    3.5185    0.0720    0.0000 N   0  0  0  0  0  0  0  0  0  0  0  0
    4.8176    6.8220    0.0000 N   0  0  0  0  0  0  0  0  0  0  0  0
   -1.0613   -3.8478    0.0000 N   0  0  0  0  0  0  0  0  0  0  0  0
   -2.9920   -5.5861    0.0000 N   0  0  0  0  0  0  0  0  0  0  0  0
    2.2195    2.3220    0.0000 C   0  0  0  0  0  0  0  0  0  0  0  0
    2.2195    3.8220    0.0000 C   0  0  0  0  0  0  0  0  0  0  0  0
    0.7929    1.8586    0.0000 C   0  0  0  0  0  0  0  0  0  0  0  0
    3.5185    4.5720    0.0000 C   0  0  0  0  0  0  0  0  0  0  0  0
    3.5185    1.5720    0.0000 C   0  0  0  0  0  0  0  0  0  0  0  0
    0.3295    0.4320    0.0000 C   0  0  0  0  0  0  0  0  0  0  0  0
   -0.0887    3.0720    0.0000 C   0  0  0  0  0  0  0  0  0  0  0  0
    4.8176    3.8220    0.0000 C   0  0  0  0  0  0  0  0  0  0  0  0
    3.5185    6.0720    0.0000 C   0  0  0  0  0  0  0  0  0  0  0  0
    1.3331   -0.6827    0.0000 C   0  0  0  0  0  0  0  0  0  0  0  0
   -1.1378    0.1202    0.0000 C   0  0  0  0  0  0  0  0  0  0  0  0
   -0.5976   -2.4212    0.0000 C   0  0  0  0  0  0  0  0  0  0  0  0
    0.8695   -2.1092    0.0000 C   0  0  0  0  0  0  0  0  0  0  0  0
   -1.6015   -1.3065    0.0000 C   0  0  0  0  0  0  0  0  0  0  0  0
   -2.5284   -4.1596    0.0000 C   0  0  0  0  0  0  0  0  0  0  0  0
   -4.4591   -5.8981    0.0000 C   0  0  0  0  0  0  0  0  0  0  0  0
    4.8176    8.3220    0.0000 C   0  0  0  0  0  0  0  0  0  0  0  0
   -4.9227   -7.3247    0.0000 C   0  0  0  0  0  0  0  0  0  0  0  0
   -6.3900   -7.6365    0.0000 C   0  0  0  0  0  0  0  0  0  0  0  0
   -5.4629   -4.7834    0.0000 C   0  0  0  0  0  0  0  0  0  0  0  0
   -7.3936   -6.5218    0.0000 C   0  0  0  0  0  0  0  0  0  0  0  0
   -6.9302   -5.0952    0.0000 C   0  0  0  0  0  0  0  0  0  0  0  0
  1 28  1  0  0  0  0
  2 11  1  0  0  0  0
  2 16  1  0  0  0  0
  3 18  2  0  0  0  0
  4 24  2  0  0  0  0
  5 14  2  0  0  0  0
  5 17  1  0  0  0  0
  6 14  1  0  0  0  0
  7 18  1  0  0  0  0
  7 26  1  0  0  0  0
  8 21  1  0  0  0  0
  8 24  1  0  0  0  0
  9 24  1  0  0  0  0
  9 25  1  0  0  0  0
 10 11  2  0  0  0  0
 10 12  1  0  0  0  0
 10 14  1  0  0  0  0
 11 13  1  0  0  0  0
 12 15  1  0  0  0  0
 12 16  2  0  0  0  0
 13 17  2  0  0  0  0
 13 18  1  0  0  0  0
 15 19  2  0  0  0  0
 15 20  1  0  0  0  0
 19 22  1  0  0  0  0
 20 23  2  0  0  0  0
 21 22  2  0  0  0  0
 21 23  1  0  0  0  0
 25 27  1  0  0  0  0
 25 29  2  0  0  0  0
 27 28  2  0  0  0  0
 28 30  1  0  0  0  0
 29 31  1  0  0  0  0
 30 31  2  0  0  0  0
M  END
> <Value>
6.0999990348465305

> <Relation>
=

> <SourceURI>
mol:CHEMBL1982476

$$$$

Generated by Molecular Materials Informatics

 25 27  0  0  0  0  0  0  0  0999 V2000
    3.3125   -4.3875    0.0000 O   0  0  0  0  0  0  0  0  0  0  0  0
    4.6115   -3.6375    0.0000 O   0  0  0  0  0  0  0  0  0  0  0  0
    2.0134   -2.1375    0.0000 N   0  0  0  0  0  0  0  0  0  0  0  0
   -5.7805   -8.1373    0.0000 N   0  0  0  0  0  0  0  0  0  0  0  0
   -1.8836   -5.8874    0.0000 C   0  0  0  0  0  0  0  0  0  0  0  0
    0.7145   -4.3875    0.0000 C   0  0  0  0  0  0  0  0  0  0  0  0
   -3.1824   -6.6374    0.0000 C   0  0  0  0  0  0  0  0  0  0  0  0
    2.0134   -3.6375    0.0000 C   0  0  0  0  0  0  0  0  0  0  0  0
   -1.8836   -4.3875    0.0000 C   0  0  0  0  0  0  0  0  0  0  0  0
   -0.5845   -6.6374    0.0000 C   0  0  0  0  0  0  0  0  0  0  0  0
   -0.5845   -3.6375    0.0000 C   0  0  0  0  0  0  0  0  0  0  0  0
    0.7145   -5.8874    0.0000 C   0  0  0  0  0  0  0  0  0  0  0  0
    3.3125   -1.3875    0.0000 C   0  0  0  0  0  0  0  0  0  0  0  0
   -4.4815   -5.8874    0.0000 C   0  0  0  0  0  0  0  0  0  0  0  0
   -3.1824   -8.1373    0.0000 C   0  0  0  0  0  0  0  0  0  0  0  0
    3.3125    0.1124    0.0000 C   0  0  0  0  0  0  0  0  0  0  0  0
    4.6115    0.8624    0.0000 C   0  0  0  0  0  0  0  0  0  0  0  0
   -5.7805   -6.6374    0.0000 C   0  0  0  0  0  0  0  0  0  0  0  0
   -4.4815   -8.8873    0.0000 C   0  0  0  0  0  0  0  0  0  0  0  0
    4.6115   -2.1375    0.0000 C   0  0  0  0  0  0  0  0  0  0  0  0
    4.6115    2.3623    0.0000 C   0  0  0  0  0  0  0  0  0  0  0  0
    5.9106    0.1124    0.0000 C   0  0  0  0  0  0  0  0  0  0  0  0
    5.9106    3.1123    0.0000 C   0  0  0  0  0  0  0  0  0  0  0  0
    7.2094    0.8624    0.0000 C   0  0  0  0  0  0  0  0  0  0  0  0
    7.2094    2.3623    0.0000 C   0  0  0  0  0  0  0  0  0  0  0  0
  1  8  2  0  0  0  0
  2 20  1  0  0  0  0
  3  8  1  0  0  0  0
  3 13  1  0  0  0  0
  4 18  2  0  0  0  0
  4 19  1  0  0  0  0
  5  7  1  0  0  0  0
  5  9  2  0  0  0  0
  5 10  1  0  0  0  0
  6  8  1  0  0  0  0
  6 11  2  0  0  0  0
  6 12  1  0  0  0  0
  7 14  2  0  0  0  0
  7 15  1  0  0  0  0
  9 11  1  0  0  0  0
 10 12  2  0  0  0  0
 13 16  1  0  0  0  0
 13 20  1  0  0  0  0
 14 18  1  0  0  0  0
 15 19  2  0  0  0  0
 16 17  1  0  0  0  0
 17 21  2  0  0  0  0
 17 22  1  0  0  0  0
 21 23  1  0  0  0  0
 22 24  2  0  0  0  0
 23 25  2  0  0  0  0
 24 25  1  0  0  0  0
M  END
> <Value>
5.899998417198648

> <Relation>
<

> <SourceURI>
mol:CHEMBL1998545

$$$$

Generated by Molecular Materials Informatics

 25 28  0  0  0  0  0  0  0  0999 V2000
   -0.7325   -0.5512    0.0000 S   0  0  0  0  0  0  0  0  0  0  0  0
   -6.2459    0.5768    0.0000 S   0  0  0  0  0  0  0  0  0  0  0  0
   -3.8641    1.9613    0.0000 O   0  0  0  0  0  0  0  0  0  0  0  0
    1.9932   -0.8378    0.0000 N   0  0  0  0  0  0  0  0  0  0  0  0
   -3.8641   -0.6369    0.0000 N   0  0  0  0  0  0  0  0  0  0  0  0
   -1.1961    3.3024    0.0000 N   0  0  0  0  0  0  0  0  0  0  0  0
   -6.2459   -1.8503    0.0000 N   0  0  0  0  0  0  0  0  0  0  0  0
    7.1893   -2.3378    0.0000 N   0  0  0  0  0  0  0  0  0  0  0  0
    0.6941    1.4122    0.0000 C   0  0  0  0  0  0  0  0  0  0  0  0
    0.6941   -0.0878    0.0000 C   0  0  0  0  0  0  0  0  0  0  0  0
   -1.6141    0.6622    0.0000 C   0  0  0  0  0  0  0  0  0  0  0  0
   -0.7325    1.8757    0.0000 C   0  0  0  0  0  0  0  0  0  0  0  0
   -3.1141    0.6622    0.0000 C   0  0  0  0  0  0  0  0  0  0  0  0
    3.2921   -0.0878    0.0000 C   0  0  0  0  0  0  0  0  0  0  0  0
    1.9932    2.1622    0.0000 C   0  0  0  0  0  0  0  0  0  0  0  0
    3.2921    1.4122    0.0000 C   0  0  0  0  0  0  0  0  0  0  0  0
    4.5912   -0.8378    0.0000 C   0  0  0  0  0  0  0  0  0  0  0  0
   -5.3641   -0.6369    0.0000 C   0  0  0  0  0  0  0  0  0  0  0  0
   -7.6725   -1.3869    0.0000 C   0  0  0  0  0  0  0  0  0  0  0  0
    4.5912   -2.3378    0.0000 C   0  0  0  0  0  0  0  0  0  0  0  0
    5.8902   -0.0878    0.0000 C   0  0  0  0  0  0  0  0  0  0  0  0
   -7.6725    0.1131    0.0000 C   0  0  0  0  0  0  0  0  0  0  0  0
    5.8902   -3.0878    0.0000 C   0  0  0  0  0  0  0  0  0  0  0  0
    7.1893   -0.8378    0.0000 C   0  0  0  0  0  0  0  0  0  0  0  0
   -8.8859   -2.2685    0.0000 C   0  0  0  0  0  0  0  0  0  0  0  0
  1 10  1  0  0  0  0
  1 11  1  0  0  0  0
  2 18  1  0  0  0  0
  2 22  1  0  0  0  0
  3 13  2  0  0  0  0
  4 10  2  0  0  0  0
  4 14  1  0  0  0  0
  5 13  1  0  0  0  0
  5 18  1  0  0  0  0
  6 12  1  0  0  0  0
  7 18  2  0  0  0  0
  7 19  1  0  0  0  0
  8 23  2  0  0  0  0
  8 24  1  0  0  0  0
  9 10  1  0  0  0  0
  9 12  1  0  0  0  0
  9 15  2  0  0  0  0
 11 12  2  0  0  0  0
 11 13  1  0  0  0  0
 14 16  2  0  0  0  0
 14 17  1  0  0  0  0
 15 16  1  0  0  0  0
 17 20  2  0  0  0  0
 17 21  1  0  0  0  0
 19 22  2  0  0  0  0
 19 25  1  0  0  0  0
 20 23  1  0  0  0  0
 21 24  2  0  0  0  0
M  END
> <Value>
5.899998417198648

> <Relation>
<

> <SourceURI>
mol:CHEMBL1986869

$$$$

Generated by Molecular Materials Informatics

 23 24  0  0  0  0  0  0  0  0999 V2000
    0.2866   -7.2375    0.0000 O   0  0  0  0  0  0  0  0  0  0  0  0
    0.2866    4.7625    0.0000 O   0  0  0  0  0  0  0  0  0  0  0  0
    4.7866   -1.2375    0.0000 O   0  0  0  0  0  0  0  0  0  0  0  0
    4.7866    1.3605    0.0000 O   0  0  0  0  0  0  0  0  0  0  0  0
    2.8846   -5.7375    0.0000 N   0  0  0  0  0  0  0  0  0  0  0  0
   -2.3116    3.2625    0.0000 N   0  0  0  0  0  0  0  0  0  0  0  0
    0.2866   -1.2375    0.0000 C   0  0  0  0  0  0  0  0  0  0  0  0
    0.2866   -2.7375    0.0000 C   0  0  0  0  0  0  0  0  0  0  0  0
    0.2866    0.2625    0.0000 C   0  0  0  0  0  0  0  0  0  0  0  0
    1.7866   -1.2375    0.0000 C   0  0  0  0  0  0  0  0  0  0  0  0
    1.5855   -3.4875    0.0000 C   0  0  0  0  0  0  0  0  0  0  0  0
   -1.0125    1.0125    0.0000 C   0  0  0  0  0  0  0  0  0  0  0  0
   -1.0125   -3.4875    0.0000 C   0  0  0  0  0  0  0  0  0  0  0  0
    1.5855    1.0125    0.0000 C   0  0  0  0  0  0  0  0  0  0  0  0
    1.5855   -4.9875    0.0000 C   0  0  0  0  0  0  0  0  0  0  0  0
   -1.0125    2.5125    0.0000 C   0  0  0  0  0  0  0  0  0  0  0  0
   -1.2134   -1.2375    0.0000 C   0  0  0  0  0  0  0  0  0  0  0  0
    0.2866   -5.7375    0.0000 C   0  0  0  0  0  0  0  0  0  0  0  0
    0.2866    3.2625    0.0000 C   0  0  0  0  0  0  0  0  0  0  0  0
   -1.0125   -4.9875    0.0000 C   0  0  0  0  0  0  0  0  0  0  0  0
    1.5855    2.5125    0.0000 C   0  0  0  0  0  0  0  0  0  0  0  0
    2.5366    0.0616    0.0000 C   0  0  0  0  0  0  0  0  0  0  0  0
    4.0366    0.0616    0.0000 C   0  0  0  0  0  0  0  0  0  0  0  0
  1 18  1  0  0  0  0
  2 19  1  0  0  0  0
  3 23  2  0  0  0  0
  4 23  1  0  0  0  0
  5 15  1  0  0  0  0
  6 16  1  0  0  0  0
  7  8  1  0  0  0  0
  7  9  1  0  0  0  0
  7 10  1  0  0  0  0
  7 17  1  0  0  0  0
  8 11  1  0  0  0  0
  8 13  2  0  0  0  0
  9 12  1  0  0  0  0
  9 14  2  0  0  0  0
 10 22  1  0  0  0  0
 11 15  2  0  0  0  0
 12 16  2  0  0  0  0
 13 20  1  0  0  0  0
 14 21  1  0  0  0  0
 15 18  1  0  0  0  0
 16 19  1  0  0  0  0
 18 20  2  0  0  0  0
 19 21  2  0  0  0  0
 22 23  1  0  0  0  0
M  END
> <Value>
5.59999938302362

> <Relation>
<

> <SourceURI>
mol:CHEMBL1975923

$$$$

Generated by Molecular Materials Informatics

 22 24  0  0  0  0  0  0  0  0999 V2000
   -1.4422   -5.1888    0.0000 Cl  0  0  0  0  0  0  0  0  0  0  0  0
    2.4549   -2.9388    0.0000 N   0  0  0  0  0  0  0  0  0  0  0  0
    3.7540   -5.1888    0.0000 N   0  0  0  0  0  0  0  0  0  0  0  0
    1.1558   -5.1888    0.0000 N   0  0  0  0  0  0  0  0  0  0  0  0
    4.9675   -7.5705    0.0000 N   0  0  0  0  0  0  0  0  0  0  0  0
    1.1558   -0.6888    0.0000 N   0  0  0  0  0  0  0  0  0  0  0  0
    4.5040   -8.9970    0.0000 N   0  0  0  0  0  0  0  0  0  0  0  0
    2.4549   -4.4388    0.0000 C   0  0  0  0  0  0  0  0  0  0  0  0
    1.1558   -2.1888    0.0000 C   0  0  0  0  0  0  0  0  0  0  0  0
    3.7540   -6.6888    0.0000 C   0  0  0  0  0  0  0  0  0  0  0  0
   -0.1431   -4.4388    0.0000 C   0  0  0  0  0  0  0  0  0  0  0  0
   -0.1431   -2.9388    0.0000 C   0  0  0  0  0  0  0  0  0  0  0  0
    2.5404   -7.5705    0.0000 C   0  0  0  0  0  0  0  0  0  0  0  0
    3.0040   -8.9970    0.0000 C   0  0  0  0  0  0  0  0  0  0  0  0
   -0.1431    0.0612    0.0000 C   0  0  0  0  0  0  0  0  0  0  0  0
   -0.1431    1.5612    0.0000 C   0  0  0  0  0  0  0  0  0  0  0  0
    2.1224  -10.2107    0.0000 C   0  0  0  0  0  0  0  0  0  0  0  0
   -1.4422    2.3112    0.0000 C   0  0  0  0  0  0  0  0  0  0  0  0
    1.1558    2.3112    0.0000 C   0  0  0  0  0  0  0  0  0  0  0  0
   -1.4422    3.8112    0.0000 C   0  0  0  0  0  0  0  0  0  0  0  0
    1.1558    3.8112    0.0000 C   0  0  0  0  0  0  0  0  0  0  0  0
   -0.1431    4.5612    0.0000 C   0  0  0  0  0  0  0  0  0  0  0  0
  1 11  1  0  0  0  0
  2  8  1  0  0  0  0
  2  9  2  0  0  0  0
  3  8  1  0  0  0  0
  3 10  1  0  0  0  0
  4  8  2  0  0  0  0
  4 11  1  0  0  0  0
  5  7  1  0  0  0  0
  5 10  2  0  0  0  0
  6  9  1  0  0  0  0
  6 15  1  0  0  0  0
  7 14  1  0  0  0  0
  9 12  1  0  0  0  0
 10 13  1  0  0  0  0
 11 12  2  0  0  0  0
 13 14  2  0  0  0  0
 14 17  1  0  0  0  0
 15 16  1  0  0  0  0
 16 18  2  0  0  0  0
 16 19  1  0  0  0  0
 18 20  1  0  0  0  0
 19 21  2  0  0  0  0
 20 22  2  0  0  0  0
 21 22  1  0  0  0  0
M  END
> <Value>
6.299997602857746

> <Relation>
=

> <SourceURI>
mol:CHEMBL2005449

$$$$

Generated by Molecular Materials Informatics

 23 25  0  0  0  0  0  0  0  0999 V2000
    0.8949   -1.6123    0.0000 Cl  0  0  0  0  0  0  0  0  0  0  0  0
    6.0911   -1.6123    0.0000 O   0  0  0  0  0  0  0  0  0  0  0  0
   -0.4042  -10.4835    0.0000 O   0  0  0  0  0  0  0  0  0  0  0  0
    2.1940  -10.4835    0.0000 O   0  0  0  0  0  0  0  0  0  0  0  0
    0.8949   -6.1123    0.0000 N   0  0  0  0  0  0  0  0  0  0  0  0
    0.8949   -8.2335    0.0000 C   0  0  0  0  0  0  0  0  0  0  0  0
    2.1940   -3.8623    0.0000 C   0  0  0  0  0  0  0  0  0  0  0  0
    1.9556   -7.1730    0.0000 C   0  0  0  0  0  0  0  0  0  0  0  0
   -0.1656   -7.1730    0.0000 C   0  0  0  0  0  0  0  0  0  0  0  0
    0.8949   -4.6123    0.0000 C   0  0  0  0  0  0  0  0  0  0  0  0
    2.1940   -2.3623    0.0000 C   0  0  0  0  0  0  0  0  0  0  0  0
    4.7920   -2.3623    0.0000 C   0  0  0  0  0  0  0  0  0  0  0  0
    3.4931   -4.6123    0.0000 C   0  0  0  0  0  0  0  0  0  0  0  0
    0.8949   -9.7335    0.0000 C   0  0  0  0  0  0  0  0  0  0  0  0
    3.4931   -1.6123    0.0000 C   0  0  0  0  0  0  0  0  0  0  0  0
    4.7920   -3.8623    0.0000 C   0  0  0  0  0  0  0  0  0  0  0  0
    6.0911   -0.1123    0.0000 C   0  0  0  0  0  0  0  0  0  0  0  0
    7.3902    0.6377    0.0000 C   0  0  0  0  0  0  0  0  0  0  0  0
    7.3902    2.1377    0.0000 C   0  0  0  0  0  0  0  0  0  0  0  0
    8.6891   -0.1123    0.0000 C   0  0  0  0  0  0  0  0  0  0  0  0
    8.6891    2.8877    0.0000 C   0  0  0  0  0  0  0  0  0  0  0  0
    9.9882    0.6377    0.0000 C   0  0  0  0  0  0  0  0  0  0  0  0
    9.9882    2.1377    0.0000 C   0  0  0  0  0  0  0  0  0  0  0  0
  1 11  1  0  0  0  0
  2 12  1  0  0  0  0
  2 17  1  0  0  0  0
  3 14  2  0  0  0  0
  4 14  1  0  0  0  0
  5  8  1  0  0  0  0
  5  9  1  0  0  0  0
  5 10  1  0  0  0  0
  6  8  1  0  0  0  0
  6  9  1  0  0  0  0
  6 14  1  0  0  0  0
  7 10  1  0  0  0  0
  7 11  1  0  0  0  0
  7 13  2  0  0  0  0
 11 15  2  0  0  0  0
 12 15  1  0  0  0  0
 12 16  2  0  0  0  0
 13 16  1  0  0  0  0
 17 18  1  0  0  0  0
 18 19  2  0  0  0  0
 18 20  1  0  0  0  0
 19 21  1  0  0  0  0
 20 22  2  0  0  0  0
 21 23  2  0  0  0  0
 22 23  1  0  0  0  0
M  END
> <Value>
5.300000202445418

> <Relation>
<

> <SourceURI>
mol:CHEMBL1987998

$$$$

Generated by Molecular Materials Informatics

 29 33  0  0  0  0  0  0  0  0999 V2000
    0.7654   -0.0413    0.0000 C   0  0  0  0  0  0  0  0  0  0  0  0
    0.7634   -1.5454    0.0000 C   0  0  0  0  0  0  0  0  0  0  0  0
    2.0628   -2.2961    0.0000 C   0  0  0  0  0  0  0  0  0  0  0  0
    2.0595    0.7090    0.0000 C   0  0  0  0  0  0  0  0  0  0  0  0
    3.3602   -0.0348    0.0000 C   0  0  0  0  0  0  0  0  0  0  0  0
    3.3608   -1.5373    0.0000 C   0  0  0  0  0  0  0  0  0  0  0  0
    5.6729   -0.7853    0.0000 N   0  0  0  0  0  0  0  0  0  0  0  0
    4.7891    0.4299    0.0000 C   0  0  0  0  0  0  0  0  0  0  0  0
   -0.5266    0.7159    0.0000 C   0  0  0  0  0  0  0  0  0  0  0  0
   -0.6836    2.2077    0.0000 C   0  0  0  0  0  0  0  0  0  0  0  0
   -1.8965    0.1058    0.0000 N   0  0  0  0  0  0  0  0  0  0  0  0
   -2.9072    1.2166    0.0000 C   0  0  0  0  0  0  0  0  0  0  0  0
   -2.1530    2.5206    0.0000 N   0  0  0  0  0  0  0  0  0  0  0  0
    0.4245    3.2066    0.0000 C   0  0  0  0  0  0  0  0  0  0  0  0
    1.8521    2.7399    0.0000 C   0  0  0  0  0  0  0  0  0  0  0  0
    2.9662    3.7422    0.0000 C   0  0  0  0  0  0  0  0  0  0  0  0
    2.6550    5.2110    0.0000 C   0  0  0  0  0  0  0  0  0  0  0  0
    1.2196    5.6725    0.0000 C   0  0  0  0  0  0  0  0  0  0  0  0
    0.1116    4.6671    0.0000 C   0  0  0  0  0  0  0  0  0  0  0  0
    3.7682    6.2161    0.0000 F   0  0  0  0  0  0  0  0  0  0  0  0
   -2.2045   -1.3622    0.0000 C   0  0  0  0  0  0  0  0  0  0  0  0
   -3.6297   -1.8296    0.0000 C   0  0  0  0  0  0  0  0  0  0  0  0
   -3.9377   -3.2976    0.0000 N   0  0  0  0  0  0  0  0  0  0  0  0
   -5.3613   -3.7532    0.0000 C   0  0  0  0  0  0  0  0  0  0  0  0
   -5.6715   -5.2142    0.0000 C   0  0  0  0  0  0  0  0  0  0  0  0
   -4.5588   -6.2209    0.0000 O   0  0  0  0  0  0  0  0  0  0  0  0
   -3.1308   -5.7566    0.0000 C   0  0  0  0  0  0  0  0  0  0  0  0
   -2.8154   -4.2853    0.0000 C   0  0  0  0  0  0  0  0  0  0  0  0
    4.7885   -1.9969    0.0000 N   0  0  0  0  0  0  0  0  0  0  0  0
  1  2  2  0  0  0  0
  2  3  1  0  0  0  0
  3  6  2  0  0  0  0
  5  4  2  0  0  0  0
  4  1  1  0  0  0  0
  5  6  1  0  0  0  0
  7  8  2  0  0  0  0
  8  5  1  0  0  0  0
  9 10  2  0  0  0  0
 10 13  1  0  0  0  0
 12 11  1  0  0  0  0
 11  9  1  0  0  0  0
  1  9  1  0  0  0  0
 12 13  2  0  0  0  0
 14 15  2  0  0  0  0
 15 16  1  0  0  0  0
 16 17  2  0  0  0  0
 17 18  1  0  0  0  0
 18 19  2  0  0  0  0
 19 14  1  0  0  0  0
 10 14  1  0  0  0  0
 17 20  1  0  0  0  0
 11 21  1  0  0  0  0
 21 22  1  0  0  0  0
 22 23  1  0  0  0  0
 23 24  1  0  0  0  0
 23 28  1  0  0  0  0
 24 25  1  0  0  0  0
 25 26  1  0  0  0  0
 26 27  1  0  0  0  0
 27 28  1  0  0  0  0
  6 29  1  0  0  0  0
  7 29  1  0  0  0  0
M  END
> <Value>
5.899998417198648

> <Relation>
<

> <SourceURI>
mol:CHEMBL1682558

$$$$

Generated by Molecular Materials Informatics

 12 13  0  0  0  0  0  0  0  0999 V2000
   -0.3444    0.3094    0.0000 S   0  0  0  0  0  0  0  0  0  0  0  0
   -3.4761    2.8220    0.0000 O   0  0  0  0  0  0  0  0  0  0  0  0
    3.6803    0.7729    0.0000 N   0  0  0  0  0  0  0  0  0  0  0  0
   -3.4761    0.2240    0.0000 N   0  0  0  0  0  0  0  0  0  0  0  0
    1.0821    0.7729    0.0000 C   0  0  0  0  0  0  0  0  0  0  0  0
    1.0821    2.2729    0.0000 C   0  0  0  0  0  0  0  0  0  0  0  0
   -1.2261    1.5229    0.0000 C   0  0  0  0  0  0  0  0  0  0  0  0
   -0.3444    2.7365    0.0000 C   0  0  0  0  0  0  0  0  0  0  0  0
   -2.7261    1.5229    0.0000 C   0  0  0  0  0  0  0  0  0  0  0  0
    2.3812    0.0229    0.0000 C   0  0  0  0  0  0  0  0  0  0  0  0
    2.3812    3.0229    0.0000 C   0  0  0  0  0  0  0  0  0  0  0  0
    3.6803    2.2729    0.0000 C   0  0  0  0  0  0  0  0  0  0  0  0
  1  5  1  0  0  0  0
  1  7  1  0  0  0  0
  2  9  2  0  0  0  0
  3 10  1  0  0  0  0
  3 12  2  0  0  0  0
  4  9  1  0  0  0  0
  5  6  1  0  0  0  0
  5 10  2  0  0  0  0
  6  8  1  0  0  0  0
  6 11  2  0  0  0  0
  7  8  2  0  0  0  0
  7  9  1  0  0  0  0
 11 12  1  0  0  0  0
M  END
> <Value>
5.59999938302362

> <Relation>
=

> <SourceURI>
mol:CHEMBL1971534

$$$$

Generated by Molecular Materials Informatics

 35 39  0  0  0  0  0  0  0  0999 V2000
   -2.1434    1.9498    0.0000 O   0  0  0  0  0  0  0  0  0  0  0  0
   -3.4425   -0.3001    0.0000 N   0  0  0  0  0  0  0  0  0  0  0  0
   -2.1434   -2.5500    0.0000 N   0  0  0  0  0  0  0  0  0  0  0  0
   -4.7415   -2.5500    0.0000 N   0  0  0  0  0  0  0  0  0  0  0  0
    3.0526   -4.0500    0.0000 N   0  0  0  0  0  0  0  0  0  0  0  0
   -7.3394   -4.0500    0.0000 N   0  0  0  0  0  0  0  0  0  0  0  0
   -0.8443   -0.3001    0.0000 C   0  0  0  0  0  0  0  0  0  0  0  0
   -0.8443   -1.8000    0.0000 C   0  0  0  0  0  0  0  0  0  0  0  0
   -2.1434    0.4499    0.0000 C   0  0  0  0  0  0  0  0  0  0  0  0
    0.4545    0.4499    0.0000 C   0  0  0  0  0  0  0  0  0  0  0  0
   -3.4425   -1.8000    0.0000 C   0  0  0  0  0  0  0  0  0  0  0  0
    0.4545   -2.5500    0.0000 C   0  0  0  0  0  0  0  0  0  0  0  0
    1.7536   -0.3001    0.0000 C   0  0  0  0  0  0  0  0  0  0  0  0
    3.0526    0.4499    0.0000 C   0  0  0  0  0  0  0  0  0  0  0  0
    0.4545    1.9498    0.0000 C   0  0  0  0  0  0  0  0  0  0  0  0
    3.0526    1.9498    0.0000 C   0  0  0  0  0  0  0  0  0  0  0  0
    1.7536    2.6998    0.0000 C   0  0  0  0  0  0  0  0  0  0  0  0
    0.4545   -4.0500    0.0000 C   0  0  0  0  0  0  0  0  0  0  0  0
    1.7536   -1.8000    0.0000 C   0  0  0  0  0  0  0  0  0  0  0  0
   -4.7415    0.4499    0.0000 C   0  0  0  0  0  0  0  0  0  0  0  0
    4.3515   -0.3001    0.0000 C   0  0  0  0  0  0  0  0  0  0  0  0
    4.3515    2.6998    0.0000 C   0  0  0  0  0  0  0  0  0  0  0  0
   -4.7415   -4.0500    0.0000 C   0  0  0  0  0  0  0  0  0  0  0  0
    1.7536   -4.8000    0.0000 C   0  0  0  0  0  0  0  0  0  0  0  0
    3.0526   -2.5500    0.0000 C   0  0  0  0  0  0  0  0  0  0  0  0
    5.6505    0.4499    0.0000 C   0  0  0  0  0  0  0  0  0  0  0  0
    5.6505    1.9498    0.0000 C   0  0  0  0  0  0  0  0  0  0  0  0
   -6.0404   -4.8000    0.0000 C   0  0  0  0  0  0  0  0  0  0  0  0
   -6.0404   -6.2999    0.0000 C   0  0  0  0  0  0  0  0  0  0  0  0
   -7.3394   -7.0499    0.0000 C   0  0  0  0  0  0  0  0  0  0  0  0
   -7.3394   -8.5498    0.0000 C   0  0  0  0  0  0  0  0  0  0  0  0
   -8.6385   -6.2999    0.0000 C   0  0  0  0  0  0  0  0  0  0  0  0
   -8.6385   -9.2998    0.0000 C   0  0  0  0  0  0  0  0  0  0  0  0
   -9.9373   -7.0499    0.0000 C   0  0  0  0  0  0  0  0  0  0  0  0
   -9.9373   -8.5498    0.0000 C   0  0  0  0  0  0  0  0  0  0  0  0
  1  9  2  0  0  0  0
  2  9  1  0  0  0  0
  2 11  1  0  0  0  0
  2 20  1  0  0  0  0
  3  8  1  0  0  0  0
  3 11  2  0  0  0  0
  4 11  1  0  0  0  0
  4 23  1  0  0  0  0
  5 24  2  0  0  0  0
  5 25  1  0  0  0  0
  6 28  1  0  0  0  0
  7  8  2  0  0  0  0
  7  9  1  0  0  0  0
  7 10  1  0  0  0  0
  8 12  1  0  0  0  0
 10 13  1  0  0  0  0
 10 15  2  0  0  0  0
 12 18  2  0  0  0  0
 12 19  1  0  0  0  0
 13 14  2  0  0  0  0
 14 16  1  0  0  0  0
 14 21  1  0  0  0  0
 15 17  1  0  0  0  0
 16 17  2  0  0  0  0
 16 22  1  0  0  0  0
 18 24  1  0  0  0  0
 19 25  2  0  0  0  0
 21 26  2  0  0  0  0
 22 27  2  0  0  0  0
 23 28  1  0  0  0  0
 26 27  1  0  0  0  0
 28 29  1  0  0  0  0
 29 30  1  0  0  0  0
 30 31  2  0  0  0  0
 30 32  1  0  0  0  0
 31 33  1  0  0  0  0
 32 34  2  0  0  0  0
 33 35  2  0  0  0  0
 34 35  1  0  0  0  0
M  END
> <Value>
5.59999938302362

> <Relation>
<

> <SourceURI>
mol:CHEMBL1990496

$$$$

Generated by Molecular Materials Informatics

 26 28  0  0  0  0  0  0  0  0999 V2000
   -5.2787   -7.1905    0.0000 N   0  0  0  0  0  0  0  0  0  0  0  0
   -5.2811   -8.6951    0.0000 C   0  0  0  0  0  0  0  0  0  0  0  0
   -3.9847   -9.4458    0.0000 N   0  0  0  0  0  0  0  0  0  0  0  0
   -2.6769   -8.6943    0.0000 C   0  0  0  0  0  0  0  0  0  0  0  0
   -2.6827   -7.1831    0.0000 C   0  0  0  0  0  0  0  0  0  0  0  0
   -3.9883   -6.4398    0.0000 C   0  0  0  0  0  0  0  0  0  0  0  0
   -1.3771   -9.4431    0.0000 N   0  0  0  0  0  0  0  0  0  0  0  0
   -0.0789   -8.6918    0.0000 C   0  0  0  0  0  0  0  0  0  0  0  0
    1.2166   -9.4496    0.0000 C   0  0  0  0  0  0  0  0  0  0  0  0
    2.5140   -8.6996    0.0000 C   0  0  0  0  0  0  0  0  0  0  0  0
    2.5135   -7.1982    0.0000 C   0  0  0  0  0  0  0  0  0  0  0  0
    1.2047   -6.4496    0.0000 C   0  0  0  0  0  0  0  0  0  0  0  0
   -0.0874   -7.2038    0.0000 C   0  0  0  0  0  0  0  0  0  0  0  0
    1.2127  -10.9496    0.0000 C   0  0  0  0  0  0  0  0  0  0  0  0
   -0.0884  -11.6963    0.0000 O   0  0  0  0  0  0  0  0  0  0  0  0
    2.5096  -11.7031    0.0000 O   0  0  0  0  0  0  0  0  0  0  0  0
   -6.5811   -9.4432    0.0000 N   0  0  0  0  0  0  0  0  0  0  0  0
   -6.5832  -10.9432    0.0000 C   0  0  0  0  0  0  0  0  0  0  0  0
   -7.8858  -11.6860    0.0000 C   0  0  0  0  0  0  0  0  0  0  0  0
   -7.8887  -13.1847    0.0000 C   0  0  0  0  0  0  0  0  0  0  0  0
   -6.5896  -13.9380    0.0000 C   0  0  0  0  0  0  0  0  0  0  0  0
   -5.2852  -13.1818    0.0000 C   0  0  0  0  0  0  0  0  0  0  0  0
   -5.2889  -11.6856    0.0000 C   0  0  0  0  0  0  0  0  0  0  0  0
   -6.5905  -15.4445    0.0000 N   0  3  0  0  0  0  0  0  0  0  0  0
   -5.2914  -16.1945    0.0000 O   0  0  0  0  0  0  0  0  0  0  0  0
   -7.8896  -16.1941    0.0000 O   0  5  0  0  0  0  0  0  0  0  0  0
 12 13  2  0  0  0  0
 13  8  1  0  0  0  0
  1  2  2  0  0  0  0
  9 14  1  0  0  0  0
  4  7  1  0  0  0  0
 14 15  1  0  0  0  0
  3  4  2  0  0  0  0
 14 16  2  0  0  0  0
  7  8  1  0  0  0  0
  2 17  1  0  0  0  0
 17 18  1  0  0  0  0
  8  9  2  0  0  0  0
 18 19  2  0  0  0  0
  4  5  1  0  0  0  0
 19 20  1  0  0  0  0
  9 10  1  0  0  0  0
 20 21  2  0  0  0  0
  2  3  1  0  0  0  0
 21 22  1  0  0  0  0
 10 11  2  0  0  0  0
 22 23  2  0  0  0  0
 23 18  1  0  0  0  0
  5  6  2  0  0  0  0
 11 12  1  0  0  0  0
  6  1  1  0  0  0  0
 24 25  2  0  0  0  0
 24 26  1  0  0  0  0
 21 24  1  0  0  0  0
M  CHG  2  24   1  26  -1
M  END
> <Value>
7.100015437450609

> <Relation>
=

> <SourceURI>
mol:CHEMBL242865

$$$$

Generated by Molecular Materials Informatics

 30 32  0  0  0  0  0  0  0  0999 V2000
   -3.7904    7.4329    0.0000 Cl  0  0  0  0  0  0  0  0  0  0  0  0
   -3.7904    1.4329    0.0000 O   0  0  0  0  0  0  0  0  0  0  0  0
   -2.4913    0.6829    0.0000 O   0  0  0  0  0  0  0  0  0  0  0  0
   -4.0679   -5.7093    0.0000 O   0  0  0  0  0  0  0  0  0  0  0  0
   -1.9661   -4.1822    0.0000 O   0  0  0  0  0  0  0  0  0  0  0  0
   -1.1924    2.9329    0.0000 N   0  0  0  0  0  0  0  0  0  0  0  0
    0.1067    0.6829    0.0000 N   0  0  0  0  0  0  0  0  0  0  0  0
    2.7047    0.6829    0.0000 N   0  0  0  0  0  0  0  0  0  0  0  0
    2.7047    3.6829    0.0000 N   0  0  0  0  0  0  0  0  0  0  0  0
    6.6019    4.4329    0.0000 N   0  0  0  0  0  0  0  0  0  0  0  0
   -2.4913    3.6829    0.0000 C   0  0  0  0  0  0  0  0  0  0  0  0
   -3.7904    2.9329    0.0000 C   0  0  0  0  0  0  0  0  0  0  0  0
   -3.7904    5.9329    0.0000 C   0  0  0  0  0  0  0  0  0  0  0  0
   -5.0895    5.1829    0.0000 C   0  0  0  0  0  0  0  0  0  0  0  0
   -2.4913    5.1829    0.0000 C   0  0  0  0  0  0  0  0  0  0  0  0
   -5.0895    3.6829    0.0000 C   0  0  0  0  0  0  0  0  0  0  0  0
   -1.1924    1.4329    0.0000 C   0  0  0  0  0  0  0  0  0  0  0  0
   -5.0895   -0.8171    0.0000 C   0  0  0  0  0  0  0  0  0  0  0  0
   -5.0895    0.6829    0.0000 C   0  0  0  0  0  0  0  0  0  0  0  0
    1.4057    1.4329    0.0000 C   0  0  0  0  0  0  0  0  0  0  0  0
   -4.3395   -3.1255    0.0000 C   0  0  0  0  0  0  0  0  0  0  0  0
   -3.8759   -1.6987    0.0000 C   0  0  0  0  0  0  0  0  0  0  0  0
   -6.3030   -1.6987    0.0000 C   0  0  0  0  0  0  0  0  0  0  0  0
   -5.8395   -3.1255    0.0000 C   0  0  0  0  0  0  0  0  0  0  0  0
    1.4057    2.9329    0.0000 C   0  0  0  0  0  0  0  0  0  0  0  0
   -6.3884    5.9329    0.0000 C   0  0  0  0  0  0  0  0  0  0  0  0
    4.0037    2.9329    0.0000 C   0  0  0  0  0  0  0  0  0  0  0  0
   -3.4579   -4.3389    0.0000 C   0  0  0  0  0  0  0  0  0  0  0  0
    4.0037    1.4329    0.0000 C   0  0  0  0  0  0  0  0  0  0  0  0
    5.3028    3.6829    0.0000 C   0  0  0  0  0  0  0  0  0  0  0  0
  1 13  1  0  0  0  0
  2 12  1  0  0  0  0
  2 19  1  0  0  0  0
  3 17  2  0  0  0  0
  4 28  2  0  0  0  0
  5 28  1  0  0  0  0
  6 11  1  0  0  0  0
  6 17  1  0  0  0  0
  7 17  1  0  0  0  0
  7 20  1  0  0  0  0
  8 20  1  0  0  0  0
  8 29  2  0  0  0  0
  9 25  1  0  0  0  0
  9 27  2  0  0  0  0
 10 30  3  0  0  0  0
 11 12  2  0  0  0  0
 11 15  1  0  0  0  0
 12 16  1  0  0  0  0
 13 14  1  0  0  0  0
 13 15  2  0  0  0  0
 14 16  2  0  0  0  0
 14 26  1  0  0  0  0
 18 19  1  0  0  0  0
 18 22  1  0  0  0  0
 18 23  1  0  0  0  0
 20 25  2  0  0  0  0
 21 22  1  0  0  0  0
 21 24  1  0  0  0  0
 21 28  1  0  0  0  0
 23 24  1  0  0  0  0
 27 29  1  0  0  0  0
 27 30  1  0  0  0  0
M  END
> <Value>
5.899998417198648

> <Relation>
<

> <SourceURI>
mol:CHEMBL1991285

$$$$

Generated by Molecular Materials Informatics

 30 34  0  0  0  0  0  0  0  0999 V2000
    5.0597    0.7065    0.0000 S   0  0  0  0  0  0  0  0  0  0  0  0
    9.7152   -0.4135    0.0000 S   0  0  0  0  0  0  0  0  0  0  0  0
   10.7188    0.7012    0.0000 O   0  0  0  0  0  0  0  0  0  0  0  0
    8.6005    0.5903    0.0000 O   0  0  0  0  0  0  0  0  0  0  0  0
    2.3025   -2.8221    0.0000 N   0  0  0  0  0  0  0  0  0  0  0  0
   -2.6379    3.9247    0.0000 N   0  0  0  0  0  0  0  0  0  0  0  0
    0.3717   -1.0835    0.0000 N   0  0  0  0  0  0  0  0  0  0  0  0
    2.8427   -0.2806    0.0000 C   0  0  0  0  0  0  0  0  0  0  0  0
    4.3097   -0.5926    0.0000 C   0  0  0  0  0  0  0  0  0  0  0  0
    2.6857    1.2110    0.0000 C   0  0  0  0  0  0  0  0  0  0  0  0
    4.7734   -2.0192    0.0000 C   0  0  0  0  0  0  0  0  0  0  0  0
    1.3868    1.9610    0.0000 C   0  0  0  0  0  0  0  0  0  0  0  0
    1.8388   -1.3953    0.0000 C   0  0  0  0  0  0  0  0  0  0  0  0
    6.2405   -2.3310    0.0000 C   0  0  0  0  0  0  0  0  0  0  0  0
    4.0561    1.8212    0.0000 C   0  0  0  0  0  0  0  0  0  0  0  0
    3.7696   -3.1339    0.0000 C   0  0  0  0  0  0  0  0  0  0  0  0
   -1.2113    1.9610    0.0000 C   0  0  0  0  0  0  0  0  0  0  0  0
    0.0877    1.2110    0.0000 C   0  0  0  0  0  0  0  0  0  0  0  0
   -1.2113    3.4610    0.0000 C   0  0  0  0  0  0  0  0  0  0  0  0
    1.3868    3.4610    0.0000 C   0  0  0  0  0  0  0  0  0  0  0  0
    7.2443   -1.2162    0.0000 C   0  0  0  0  0  0  0  0  0  0  0  0
    8.7116   -1.5281    0.0000 C   0  0  0  0  0  0  0  0  0  0  0  0
    6.7041   -3.7575    0.0000 C   0  0  0  0  0  0  0  0  0  0  0  0
    0.0877    4.2110    0.0000 C   0  0  0  0  0  0  0  0  0  0  0  0
   -2.6379    1.4976    0.0000 C   0  0  0  0  0  0  0  0  0  0  0  0
   -3.5195    2.7110    0.0000 C   0  0  0  0  0  0  0  0  0  0  0  0
    9.1750   -2.9548    0.0000 C   0  0  0  0  0  0  0  0  0  0  0  0
    8.1714   -4.0695    0.0000 C   0  0  0  0  0  0  0  0  0  0  0  0
   10.8299   -1.4172    0.0000 C   0  0  0  0  0  0  0  0  0  0  0  0
   -5.0195    2.7110    0.0000 C   0  0  0  0  0  0  0  0  0  0  0  0
  1  9  1  0  0  0  0
  1 15  1  0  0  0  0
  2  3  2  0  0  0  0
  2  4  2  0  0  0  0
  2 22  1  0  0  0  0
  2 29  1  0  0  0  0
  5 13  1  0  0  0  0
  5 16  2  0  0  0  0
  6 19  1  0  0  0  0
  6 26  1  0  0  0  0
  7 13  1  0  0  0  0
  8  9  1  0  0  0  0
  8 10  1  0  0  0  0
  8 13  2  0  0  0  0
  9 11  2  0  0  0  0
 10 12  1  0  0  0  0
 10 15  2  0  0  0  0
 11 14  1  0  0  0  0
 11 16  1  0  0  0  0
 12 18  1  0  0  0  0
 12 20  2  0  0  0  0
 14 21  1  0  0  0  0
 14 23  2  0  0  0  0
 17 18  2  0  0  0  0
 17 19  1  0  0  0  0
 17 25  1  0  0  0  0
 19 24  2  0  0  0  0
 20 24  1  0  0  0  0
 21 22  2  0  0  0  0
 22 27  1  0  0  0  0
 23 28  1  0  0  0  0
 25 26  2  0  0  0  0
 26 30  1  0  0  0  0
 27 28  2  0  0  0  0
M  END
> <Value>
5.899998417198648

> <Relation>
<

> <SourceURI>
mol:CHEMBL1997822

$$$$

Generated by Molecular Materials Informatics

 24 26  0  0  0  0  0  0  0  0999 V2000
   12.0087  -17.9098    0.0000 N   0  0  0  0  0  0  0  0  0  0  0  0
   12.0063  -19.4146    0.0000 C   0  0  0  0  0  0  0  0  0  0  0  0
   13.3027  -20.1651    0.0000 N   0  0  0  0  0  0  0  0  0  0  0  0
   14.6105  -19.4137    0.0000 C   0  0  0  0  0  0  0  0  0  0  0  0
   14.6047  -17.9026    0.0000 C   0  0  0  0  0  0  0  0  0  0  0  0
   13.2988  -17.1591    0.0000 C   0  0  0  0  0  0  0  0  0  0  0  0
   15.9101  -20.1624    0.0000 N   0  0  0  0  0  0  0  0  0  0  0  0
   17.2085  -19.4111    0.0000 C   0  0  0  0  0  0  0  0  0  0  0  0
   18.5038  -20.1689    0.0000 C   0  0  0  0  0  0  0  0  0  0  0  0
   19.8014  -19.4189    0.0000 C   0  0  0  0  0  0  0  0  0  0  0  0
   19.8009  -17.9175    0.0000 C   0  0  0  0  0  0  0  0  0  0  0  0
   18.4920  -17.1689    0.0000 C   0  0  0  0  0  0  0  0  0  0  0  0
   17.1998  -17.9231    0.0000 C   0  0  0  0  0  0  0  0  0  0  0  0
   18.5000  -21.6689    0.0000 C   0  0  0  0  0  0  0  0  0  0  0  0
   17.1990  -22.4157    0.0000 O   0  0  0  0  0  0  0  0  0  0  0  0
   19.7971  -22.4224    0.0000 O   0  0  0  0  0  0  0  0  0  0  0  0
   10.7063  -20.1626    0.0000 N   0  0  0  0  0  0  0  0  0  0  0  0
   10.7039  -21.6626    0.0000 C   0  0  0  0  0  0  0  0  0  0  0  0
    9.4014  -22.4053    0.0000 C   0  0  0  0  0  0  0  0  0  0  0  0
    9.3987  -23.9040    0.0000 C   0  0  0  0  0  0  0  0  0  0  0  0
   10.6976  -24.6573    0.0000 C   0  0  0  0  0  0  0  0  0  0  0  0
   12.0019  -23.9011    0.0000 C   0  0  0  0  0  0  0  0  0  0  0  0
   11.9985  -22.4049    0.0000 C   0  0  0  0  0  0  0  0  0  0  0  0
    8.0983  -24.6517    0.0000 O   0  0  0  0  0  0  0  0  0  0  0  0
 11 12  1  0  0  0  0
  6  1  1  0  0  0  0
 12 13  2  0  0  0  0
 13  8  1  0  0  0  0
  1  2  2  0  0  0  0
  9 14  1  0  0  0  0
  4  7  1  0  0  0  0
 14 15  1  0  0  0  0
  3  4  2  0  0  0  0
 14 16  2  0  0  0  0
  7  8  1  0  0  0  0
  2 17  1  0  0  0  0
 17 18  1  0  0  0  0
  8  9  2  0  0  0  0
 18 19  2  0  0  0  0
  4  5  1  0  0  0  0
 19 20  1  0  0  0  0
  9 10  1  0  0  0  0
 20 21  2  0  0  0  0
  2  3  1  0  0  0  0
 21 22  1  0  0  0  0
 10 11  2  0  0  0  0
 22 23  2  0  0  0  0
 23 18  1  0  0  0  0
  5  6  2  0  0  0  0
 20 24  1  0  0  0  0
M  END
> <Value>
6.799998134593398

> <Relation>
=

> <SourceURI>
mol:CHEMBL243088

$$$$

Generated by Molecular Materials Informatics

 39 43  0  0  0  0  0  0  0  0999 V2000
    7.3096    4.7786    0.0000 S   0  0  0  0  0  0  0  0  0  0  0  0
    5.8274   -4.1733    0.0000 O   0  0  0  0  0  0  0  0  0  0  0  0
   -5.5251   -2.8395    0.0000 O   0  0  0  0  0  0  0  0  0  0  0  0
   -3.3260   -4.8801    0.0000 O   0  0  0  0  0  0  0  0  0  0  0  0
   -4.8577    0.0853    0.0000 O   0  0  0  0  0  0  0  0  0  0  0  0
    6.9759    6.2412    0.0000 O   0  0  0  0  0  0  0  0  0  0  0  0
    5.8472    4.4450    0.0000 O   0  0  0  0  0  0  0  0  0  0  0  0
    4.4266    0.4642    0.0000 N   0  0  0  0  0  0  0  0  0  0  0  0
    3.6766   -2.8219    0.0000 N   0  0  0  0  0  0  0  0  0  0  0  0
    7.6434    3.3162    0.0000 N   0  0  0  0  0  0  0  0  0  0  0  0
    5.7781   -0.1867    0.0000 C   0  0  0  0  0  0  0  0  0  0  0  0
    6.1118   -1.6491    0.0000 C   0  0  0  0  0  0  0  0  0  0  0  0
    2.7413   -1.6491    0.0000 C   0  0  0  0  0  0  0  0  0  0  0  0
    3.0752   -0.1867    0.0000 C   0  0  0  0  0  0  0  0  0  0  0  0
    0.2084   -1.0709    0.0000 C   0  0  0  0  0  0  0  0  0  0  0  0
    5.1766   -2.8219    0.0000 C   0  0  0  0  0  0  0  0  0  0  0  0
    8.3111    0.3915    0.0000 C   0  0  0  0  0  0  0  0  0  0  0  0
   -1.2251   -1.5131    0.0000 C   0  0  0  0  0  0  0  0  0  0  0  0
    1.3079   -2.0913    0.0000 C   0  0  0  0  0  0  0  0  0  0  0  0
    6.8776    0.8336    0.0000 C   0  0  0  0  0  0  0  0  0  0  0  0
    9.4105    1.4116    0.0000 C   0  0  0  0  0  0  0  0  0  0  0  0
    7.5452   -2.0913    0.0000 C   0  0  0  0  0  0  0  0  0  0  0  0
    1.9755    0.8336    0.0000 C   0  0  0  0  0  0  0  0  0  0  0  0
    0.5422    0.3915    0.0000 C   0  0  0  0  0  0  0  0  0  0  0  0
   -4.0918   -2.3973    0.0000 C   0  0  0  0  0  0  0  0  0  0  0  0
   -2.9922   -3.4177    0.0000 C   0  0  0  0  0  0  0  0  0  0  0  0
   -3.7580   -0.9349    0.0000 C   0  0  0  0  0  0  0  0  0  0  0  0
    8.6449   -1.0709    0.0000 C   0  0  0  0  0  0  0  0  0  0  0  0
   -1.5589   -2.9755    0.0000 C   0  0  0  0  0  0  0  0  0  0  0  0
   -2.3245   -0.4929    0.0000 C   0  0  0  0  0  0  0  0  0  0  0  0
    9.0769    2.8742    0.0000 C   0  0  0  0  0  0  0  0  0  0  0  0
   10.8440    0.9696    0.0000 C   0  0  0  0  0  0  0  0  0  0  0  0
   10.1764    3.8944    0.0000 C   0  0  0  0  0  0  0  0  0  0  0  0
   11.9436    1.9898    0.0000 C   0  0  0  0  0  0  0  0  0  0  0  0
   11.6098    3.4522    0.0000 C   0  0  0  0  0  0  0  0  0  0  0  0
   -5.8589   -4.3019    0.0000 C   0  0  0  0  0  0  0  0  0  0  0  0
   -2.2264   -5.9003    0.0000 C   0  0  0  0  0  0  0  0  0  0  0  0
   -4.5238    1.5476    0.0000 C   0  0  0  0  0  0  0  0  0  0  0  0
    8.7722    5.1124    0.0000 C   0  0  0  0  0  0  0  0  0  0  0  0
  1  6  2  0  0  0  0
  1  7  2  0  0  0  0
  1 10  1  0  0  0  0
  1 39  1  0  0  0  0
  2 16  2  0  0  0  0
  3 25  1  0  0  0  0
  3 36  1  0  0  0  0
  4 26  1  0  0  0  0
  4 37  1  0  0  0  0
  5 27  1  0  0  0  0
  5 38  1  0  0  0  0
  8 11  1  0  0  0  0
  8 14  1  0  0  0  0
  9 13  1  0  0  0  0
  9 16  1  0  0  0  0
 10 31  1  0  0  0  0
 11 12  1  0  0  0  0
 11 20  2  0  0  0  0
 12 16  1  0  0  0  0
 12 22  2  0  0  0  0
 13 14  1  0  0  0  0
 13 19  2  0  0  0  0
 14 23  2  0  0  0  0
 15 18  1  0  0  0  0
 15 19  1  0  0  0  0
 15 24  2  0  0  0  0
 17 20  1  0  0  0  0
 17 21  1  0  0  0  0
 17 28  2  0  0  0  0
 18 29  2  0  0  0  0
 18 30  1  0  0  0  0
 21 31  1  0  0  0  0
 21 32  2  0  0  0  0
 22 28  1  0  0  0  0
 23 24  1  0  0  0  0
 25 26  2  0  0  0  0
 25 27  1  0  0  0  0
 26 29  1  0  0  0  0
 27 30  2  0  0  0  0
 31 33  2  0  0  0  0
 32 34  1  0  0  0  0
 33 35  1  0  0  0  0
 34 35  2  0  0  0  0
M  END
> <Value>
5.499999678657065

> <Relation>
<

> <SourceURI>
mol:CHEMBL1984038

$$$$

Generated by Molecular Materials Informatics

 26 29  0  0  0  0  0  0  0  0999 V2000
    4.0099    3.2640    0.0000 F   0  0  0  0  0  0  0  0  0  0  0  0
    6.6079    4.7640    0.0000 F   0  0  0  0  0  0  0  0  0  0  0  0
    4.0099   -1.2360    0.0000 O   0  0  0  0  0  0  0  0  0  0  0  0
   -2.6128   -1.6994    0.0000 N   0  0  0  0  0  0  0  0  0  0  0  0
    0.1128   -1.9860    0.0000 N   0  0  0  0  0  0  0  0  0  0  0  0
    2.7108    1.0140    0.0000 N   0  0  0  0  0  0  0  0  0  0  0  0
   -1.1863    0.2640    0.0000 C   0  0  0  0  0  0  0  0  0  0  0  0
   -2.6128    0.7275    0.0000 C   0  0  0  0  0  0  0  0  0  0  0  0
   -1.1863   -1.2360    0.0000 C   0  0  0  0  0  0  0  0  0  0  0  0
    1.4117    0.2640    0.0000 C   0  0  0  0  0  0  0  0  0  0  0  0
    0.1128    1.0140    0.0000 C   0  0  0  0  0  0  0  0  0  0  0  0
   -3.0765    2.1542    0.0000 C   0  0  0  0  0  0  0  0  0  0  0  0
   -3.4945   -0.4860    0.0000 C   0  0  0  0  0  0  0  0  0  0  0  0
    5.3090    1.0140    0.0000 C   0  0  0  0  0  0  0  0  0  0  0  0
    4.0099    0.2640    0.0000 C   0  0  0  0  0  0  0  0  0  0  0  0
    1.4117   -1.2360    0.0000 C   0  0  0  0  0  0  0  0  0  0  0  0
    5.3090    2.5140    0.0000 C   0  0  0  0  0  0  0  0  0  0  0  0
    6.6079    3.2640    0.0000 C   0  0  0  0  0  0  0  0  0  0  0  0
    6.6079    0.2640    0.0000 C   0  0  0  0  0  0  0  0  0  0  0  0
   -4.5436    2.4660    0.0000 C   0  0  0  0  0  0  0  0  0  0  0  0
   -2.0726    3.2689    0.0000 C   0  0  0  0  0  0  0  0  0  0  0  0
    7.9070    2.5140    0.0000 C   0  0  0  0  0  0  0  0  0  0  0  0
    7.9070    1.0140    0.0000 C   0  0  0  0  0  0  0  0  0  0  0  0
   -5.0072    3.8926    0.0000 C   0  0  0  0  0  0  0  0  0  0  0  0
   -2.5363    4.6955    0.0000 C   0  0  0  0  0  0  0  0  0  0  0  0
   -4.0034    5.0073    0.0000 C   0  0  0  0  0  0  0  0  0  0  0  0
  1 17  1  0  0  0  0
  2 18  1  0  0  0  0
  3 15  2  0  0  0  0
  4  9  1  0  0  0  0
  4 13  1  0  0  0  0
  5  9  2  0  0  0  0
  5 16  1  0  0  0  0
  6 10  1  0  0  0  0
  6 15  1  0  0  0  0
  7  8  1  0  0  0  0
  7  9  1  0  0  0  0
  7 11  2  0  0  0  0
  8 12  1  0  0  0  0
  8 13  2  0  0  0  0
 10 11  1  0  0  0  0
 10 16  2  0  0  0  0
 12 20  2  0  0  0  0
 12 21  1  0  0  0  0
 14 15  1  0  0  0  0
 14 17  2  0  0  0  0
 14 19  1  0  0  0  0
 17 18  1  0  0  0  0
 18 22  2  0  0  0  0
 19 23  2  0  0  0  0
 20 24  1  0  0  0  0
 21 25  2  0  0  0  0
 22 23  1  0  0  0  0
 24 26  2  0  0  0  0
 25 26  1  0  0  0  0
M  END
> <Value>
5.899998417198648

> <Relation>
<

> <SourceURI>
mol:CHEMBL1974416

$$$$

Generated by Molecular Materials Informatics

 32 34  0  0  0  0  0  0  0  0999 V2000
    0.6821   -5.5687    0.0000 Cl  0  0  0  0  0  0  0  0  0  0  0  0
    5.8782   -5.5687    0.0000 S   0  0  0  0  0  0  0  0  0  0  0  0
    6.6281   -6.8678    0.0000 O   0  0  0  0  0  0  0  0  0  0  0  0
    5.1282   -4.2696    0.0000 O   0  0  0  0  0  0  0  0  0  0  0  0
    5.8782    3.4312    0.0000 O   0  0  0  0  0  0  0  0  0  0  0  0
    3.2802    4.9312    0.0000 O   0  0  0  0  0  0  0  0  0  0  0  0
    5.8782    0.4312    0.0000 O   0  0  0  0  0  0  0  0  0  0  0  0
    3.2802   -4.0687    0.0000 N   0  0  0  0  0  0  0  0  0  0  0  0
    1.9811   -1.8187    0.0000 N   0  0  0  0  0  0  0  0  0  0  0  0
    0.6821    0.4312    0.0000 N   0  0  0  0  0  0  0  0  0  0  0  0
   -0.6170   -1.8187    0.0000 N   0  0  0  0  0  0  0  0  0  0  0  0
    7.1772   -4.8187    0.0000 N   0  0  0  0  0  0  0  0  0  0  0  0
    4.5791   -6.3187    0.0000 C   0  0  0  0  0  0  0  0  0  0  0  0
    3.2802   -5.5687    0.0000 C   0  0  0  0  0  0  0  0  0  0  0  0
    1.9811   -3.3187    0.0000 C   0  0  0  0  0  0  0  0  0  0  0  0
    1.9811    1.1812    0.0000 C   0  0  0  0  0  0  0  0  0  0  0  0
    0.6821   -1.0688    0.0000 C   0  0  0  0  0  0  0  0  0  0  0  0
    4.5791    2.6812    0.0000 C   0  0  0  0  0  0  0  0  0  0  0  0
    3.2802    3.4312    0.0000 C   0  0  0  0  0  0  0  0  0  0  0  0
    4.5791    1.1812    0.0000 C   0  0  0  0  0  0  0  0  0  0  0  0
    0.6821   -4.0687    0.0000 C   0  0  0  0  0  0  0  0  0  0  0  0
    1.9811    2.6812    0.0000 C   0  0  0  0  0  0  0  0  0  0  0  0
    3.2802    0.4312    0.0000 C   0  0  0  0  0  0  0  0  0  0  0  0
    4.5791   -7.8187    0.0000 C   0  0  0  0  0  0  0  0  0  0  0  0
    1.9811   -6.3187    0.0000 C   0  0  0  0  0  0  0  0  0  0  0  0
   -0.6170   -3.3187    0.0000 C   0  0  0  0  0  0  0  0  0  0  0  0
    3.2802   -8.5686    0.0000 C   0  0  0  0  0  0  0  0  0  0  0  0
    1.9811   -7.8187    0.0000 C   0  0  0  0  0  0  0  0  0  0  0  0
    8.4761   -5.5687    0.0000 C   0  0  0  0  0  0  0  0  0  0  0  0
    5.8782    4.9312    0.0000 C   0  0  0  0  0  0  0  0  0  0  0  0
    1.9811    5.6811    0.0000 C   0  0  0  0  0  0  0  0  0  0  0  0
    5.8782   -1.0688    0.0000 C   0  0  0  0  0  0  0  0  0  0  0  0
  1 21  1  0  0  0  0
  2  3  2  0  0  0  0
  2  4  2  0  0  0  0
  2 12  1  0  0  0  0
  2 13  1  0  0  0  0
  5 18  1  0  0  0  0
  5 30  1  0  0  0  0
  6 19  1  0  0  0  0
  6 31  1  0  0  0  0
  7 20  1  0  0  0  0
  7 32  1  0  0  0  0
  8 14  1  0  0  0  0
  8 15  1  0  0  0  0
  9 15  2  0  0  0  0
  9 17  1  0  0  0  0
 10 16  1  0  0  0  0
 10 17  1  0  0  0  0
 11 17  2  0  0  0  0
 11 26  1  0  0  0  0
 12 29  1  0  0  0  0
 13 14  1  0  0  0  0
 13 24  2  0  0  0  0
 14 25  2  0  0  0  0
 15 21  1  0  0  0  0
 16 22  2  0  0  0  0
 16 23  1  0  0  0  0
 18 19  2  0  0  0  0
 18 20  1  0  0  0  0
 19 22  1  0  0  0  0
 20 23  2  0  0  0  0
 21 26  2  0  0  0  0
 24 27  1  0  0  0  0
 25 28  1  0  0  0  0
 27 28  2  0  0  0  0
M  END
> <Value>
5.300000202445418

> <Relation>
<

> <SourceURI>
mol:CHEMBL1993661

$$$$

Generated by Molecular Materials Informatics

 25 28  0  0  0  0  0  0  0  0999 V2000
    1.9834    3.4725    0.0000 Cl  0  0  0  0  0  0  0  0  0  0  0  0
    8.6167   -0.2409    0.0000 F   0  0  0  0  0  0  0  0  0  0  0  0
    7.9819   -3.1731    0.0000 O   0  0  0  0  0  0  0  0  0  0  0  0
    2.2010    0.9962    0.0000 N   0  0  0  0  0  0  0  0  0  0  0  0
    2.9875   -2.2813    0.0000 N   0  0  0  0  0  0  0  0  0  0  0  0
    0.3499   -2.4293    0.0000 N   0  0  0  0  0  0  0  0  0  0  0  0
   -0.7907   -1.4551    0.0000 N   0  0  0  0  0  0  0  0  0  0  0  0
    4.6492   -0.1493    0.0000 C   0  0  0  0  0  0  0  0  0  0  0  0
    3.7008    1.0129    0.0000 C   0  0  0  0  0  0  0  0  0  0  0  0
    4.3317   -1.6155    0.0000 C   0  0  0  0  0  0  0  0  0  0  0  0
    1.2788   -0.1871    0.0000 C   0  0  0  0  0  0  0  0  0  0  0  0
    1.6290   -1.6457    0.0000 C   0  0  0  0  0  0  0  0  0  0  0  0
    4.3365    2.3714    0.0000 C   0  0  0  0  0  0  0  0  0  0  0  0
   -0.2165   -0.0693    0.0000 C   0  0  0  0  0  0  0  0  0  0  0  0
    6.0776    0.3087    0.0000 C   0  0  0  0  0  0  0  0  0  0  0  0
    5.4426   -2.6233    0.0000 C   0  0  0  0  0  0  0  0  0  0  0  0
    6.8710   -2.1651    0.0000 C   0  0  0  0  0  0  0  0  0  0  0  0
    7.1885   -0.6991    0.0000 C   0  0  0  0  0  0  0  0  0  0  0  0
    3.4777    3.6013    0.0000 C   0  0  0  0  0  0  0  0  0  0  0  0
    5.8310    2.5004    0.0000 C   0  0  0  0  0  0  0  0  0  0  0  0
    4.1134    4.9600    0.0000 C   0  0  0  0  0  0  0  0  0  0  0  0
   -1.0003    1.2096    0.0000 C   0  0  0  0  0  0  0  0  0  0  0  0
    6.4666    3.8589    0.0000 C   0  0  0  0  0  0  0  0  0  0  0  0
    5.6079    5.0887    0.0000 C   0  0  0  0  0  0  0  0  0  0  0  0
    9.4103   -2.7149    0.0000 C   0  0  0  0  0  0  0  0  0  0  0  0
  1 19  1  0  0  0  0
  2 18  1  0  0  0  0
  3 17  1  0  0  0  0
  3 25  1  0  0  0  0
  4  9  2  0  0  0  0
  4 11  1  0  0  0  0
  5 10  1  0  0  0  0
  5 12  1  0  0  0  0
  6  7  1  0  0  0  0
  6 12  2  0  0  0  0
  7 14  1  0  0  0  0
  8  9  1  0  0  0  0
  8 10  2  0  0  0  0
  8 15  1  0  0  0  0
  9 13  1  0  0  0  0
 10 16  1  0  0  0  0
 11 12  1  0  0  0  0
 11 14  2  0  0  0  0
 13 19  1  0  0  0  0
 13 20  2  0  0  0  0
 14 22  1  0  0  0  0
 15 18  2  0  0  0  0
 16 17  2  0  0  0  0
 17 18  1  0  0  0  0
 19 21  2  0  0  0  0
 20 23  1  0  0  0  0
 21 24  1  0  0  0  0
 23 24  2  0  0  0  0
M  END
> <Value>
5.899998417198648

> <Relation>
<

> <SourceURI>
mol:CHEMBL1980391

$$$$

Generated by Molecular Materials Informatics

 19 20  0  0  0  0  0  0  0  0999 V2000
   -2.4965   -5.9250    0.0000 S   0  0  0  0  0  0  0  0  0  0  0  0
   -8.2610   -0.1901    0.0000 F   0  0  0  0  0  0  0  0  0  0  0  0
   -3.1067   -7.2954    0.0000 O   0  0  0  0  0  0  0  0  0  0  0  0
   -3.2465   -4.6260    0.0000 N   0  0  0  0  0  0  0  0  0  0  0  0
   -1.0293   -5.6132    0.0000 N   0  0  0  0  0  0  0  0  0  0  0  0
   -2.5547   -2.0442    0.0000 N   0  0  0  0  0  0  0  0  0  0  0  0
    0.4265   -3.3715    0.0000 N   0  0  0  0  0  0  0  0  0  0  0  0
   -2.2429   -3.5113    0.0000 C   0  0  0  0  0  0  0  0  0  0  0  0
   -0.8726   -4.1215    0.0000 C   0  0  0  0  0  0  0  0  0  0  0  0
   -3.9812   -1.5806    0.0000 C   0  0  0  0  0  0  0  0  0  0  0  0
   -5.0959   -2.5842    0.0000 C   0  0  0  0  0  0  0  0  0  0  0  0
   -4.2932   -0.1134    0.0000 C   0  0  0  0  0  0  0  0  0  0  0  0
   -6.8344   -0.6535    0.0000 C   0  0  0  0  0  0  0  0  0  0  0  0
   -6.5226   -2.1208    0.0000 C   0  0  0  0  0  0  0  0  0  0  0  0
   -5.7197    0.3501    0.0000 C   0  0  0  0  0  0  0  0  0  0  0  0
    1.7254   -4.1215    0.0000 C   0  0  0  0  0  0  0  0  0  0  0  0
    3.0244   -3.3715    0.0000 C   0  0  0  0  0  0  0  0  0  0  0  0
    4.3235   -4.1215    0.0000 C   0  0  0  0  0  0  0  0  0  0  0  0
    5.6224   -3.3715    0.0000 C   0  0  0  0  0  0  0  0  0  0  0  0
  1  3  2  0  0  0  0
  1  4  1  0  0  0  0
  1  5  1  0  0  0  0
  2 13  1  0  0  0  0
  4  8  2  0  0  0  0
  5  9  2  0  0  0  0
  6  8  1  0  0  0  0
  6 10  1  0  0  0  0
  7  9  1  0  0  0  0
  7 16  1  0  0  0  0
  8  9  1  0  0  0  0
 10 11  2  0  0  0  0
 10 12  1  0  0  0  0
 11 14  1  0  0  0  0
 12 15  2  0  0  0  0
 13 14  2  0  0  0  0
 13 15  1  0  0  0  0
 16 17  1  0  0  0  0
 17 18  1  0  0  0  0
 18 19  1  0  0  0  0
M  END
> <Value>
6.799998134593398

> <Relation>
=

> <SourceURI>
mol:CHEMBL1971694

$$$$

Generated by Molecular Materials Informatics

 31 34  0  0  0  0  0  0  0  0999 V2000
   -2.0266    2.9045    0.0000 F   0  0  0  0  0  0  0  0  0  0  0  0
   -6.5266    0.3065    0.0000 F   0  0  0  0  0  0  0  0  0  0  0  0
    4.9099   -7.9074    0.0000 O   0  0  0  0  0  0  0  0  0  0  0  0
    1.7816   -0.4435    0.0000 N   0  0  0  0  0  0  0  0  0  0  0  0
    0.3550    1.5199    0.0000 N   0  0  0  0  0  0  0  0  0  0  0  0
    0.8952   -3.4484    0.0000 N   0  0  0  0  0  0  0  0  0  0  0  0
    4.3797    1.0565    0.0000 N   0  0  0  0  0  0  0  0  0  0  0  0
   -1.0355   -5.1868    0.0000 N   0  0  0  0  0  0  0  0  0  0  0  0
    1.4354   -5.9897    0.0000 N   0  0  0  0  0  0  0  0  0  0  0  0
    0.3550   -0.9072    0.0000 C   0  0  0  0  0  0  0  0  0  0  0  0
   -0.5266    0.3065    0.0000 C   0  0  0  0  0  0  0  0  0  0  0  0
    1.7816    1.0565    0.0000 C   0  0  0  0  0  0  0  0  0  0  0  0
   -0.1084   -2.3337    0.0000 C   0  0  0  0  0  0  0  0  0  0  0  0
   -2.0266    0.3065    0.0000 C   0  0  0  0  0  0  0  0  0  0  0  0
    3.0807    1.8065    0.0000 C   0  0  0  0  0  0  0  0  0  0  0  0
    3.0807   -1.1935    0.0000 C   0  0  0  0  0  0  0  0  0  0  0  0
   -2.7766    1.6054    0.0000 C   0  0  0  0  0  0  0  0  0  0  0  0
   -2.7766   -0.9926    0.0000 C   0  0  0  0  0  0  0  0  0  0  0  0
   -1.5757   -2.6455    0.0000 C   0  0  0  0  0  0  0  0  0  0  0  0
    4.3797   -0.4435    0.0000 C   0  0  0  0  0  0  0  0  0  0  0  0
    0.4316   -4.8750    0.0000 C   0  0  0  0  0  0  0  0  0  0  0  0
    3.0807    3.3065    0.0000 C   0  0  0  0  0  0  0  0  0  0  0  0
   -4.2766    1.6054    0.0000 C   0  0  0  0  0  0  0  0  0  0  0  0
   -4.2766   -0.9926    0.0000 C   0  0  0  0  0  0  0  0  0  0  0  0
   -5.0266    0.3065    0.0000 C   0  0  0  0  0  0  0  0  0  0  0  0
   -2.0393   -4.0723    0.0000 C   0  0  0  0  0  0  0  0  0  0  0  0
    1.7816    4.0565    0.0000 C   0  0  0  0  0  0  0  0  0  0  0  0
    2.9027   -5.6779    0.0000 C   0  0  0  0  0  0  0  0  0  0  0  0
    3.9063   -6.7926    0.0000 C   0  0  0  0  0  0  0  0  0  0  0  0
    5.0210   -5.7888    0.0000 C   0  0  0  0  0  0  0  0  0  0  0  0
    2.7916   -7.7963    0.0000 C   0  0  0  0  0  0  0  0  0  0  0  0
  1 17  1  0  0  0  0
  2 25  1  0  0  0  0
  3 29  1  0  0  0  0
  4 10  1  0  0  0  0
  4 12  1  0  0  0  0
  4 16  1  0  0  0  0
  5 11  1  0  0  0  0
  5 12  2  0  0  0  0
  6 13  1  0  0  0  0
  6 21  2  0  0  0  0
  7 15  2  0  0  0  0
  7 20  1  0  0  0  0
  8 21  1  0  0  0  0
  8 26  2  0  0  0  0
  9 21  1  0  0  0  0
  9 28  1  0  0  0  0
 10 11  2  0  0  0  0
 10 13  1  0  0  0  0
 11 14  1  0  0  0  0
 12 15  1  0  0  0  0
 13 19  2  0  0  0  0
 14 17  1  0  0  0  0
 14 18  2  0  0  0  0
 15 22  1  0  0  0  0
 16 20  2  0  0  0  0
 17 23  2  0  0  0  0
 18 24  1  0  0  0  0
 19 26  1  0  0  0  0
 22 27  1  0  0  0  0
 23 25  1  0  0  0  0
 24 25  2  0  0  0  0
 28 29  1  0  0  0  0
 29 30  1  0  0  0  0
 29 31  1  0  0  0  0
M  END
> <Value>
5.899998417198648

> <Relation>
<

> <SourceURI>
mol:CHEMBL2001547

$$$$

Generated by Molecular Materials Informatics

 29 30  0  0  0  0  0  0  0  0999 V2000
    2.8933  -14.5576    0.0000 C   0  0  0  0  0  0  0  0  0  0  0  0
    2.8909  -16.0623    0.0000 C   0  0  0  0  0  0  0  0  0  0  0  0
    4.1873  -16.8132    0.0000 N   0  0  0  0  0  0  0  0  0  0  0  0
    5.4951  -16.0614    0.0000 C   0  0  0  0  0  0  0  0  0  0  0  0
    5.4895  -14.5503    0.0000 C   0  0  0  0  0  0  0  0  0  0  0  0
    4.1836  -13.8070    0.0000 C   0  0  0  0  0  0  0  0  0  0  0  0
    6.7949  -16.8101    0.0000 O   0  0  0  0  0  0  0  0  0  0  0  0
    6.7964  -18.3101    0.0000 C   0  0  0  0  0  0  0  0  0  0  0  0
    8.0960  -19.0590    0.0000 C   0  0  0  0  0  0  0  0  0  0  0  0
    4.1767  -12.3070    0.0000 N   0  0  0  0  0  0  0  0  0  0  0  0
    1.5907  -16.8107    0.0000 N   0  0  0  0  0  0  0  0  0  0  0  0
    0.2927  -16.0585    0.0000 C   0  0  0  0  0  0  0  0  0  0  0  0
   -1.0073  -16.8068    0.0000 C   0  0  0  0  0  0  0  0  0  0  0  0
    0.2949  -14.5585    0.0000 O   0  0  0  0  0  0  0  0  0  0  0  0
   -2.3052  -16.0548    0.0000 C   0  0  0  0  0  0  0  0  0  0  0  0
   -2.2992  -14.5579    0.0000 C   0  0  0  0  0  0  0  0  0  0  0  0
   -3.5956  -13.8061    0.0000 C   0  0  0  0  0  0  0  0  0  0  0  0
   -4.8978  -14.5543    0.0000 C   0  0  0  0  0  0  0  0  0  0  0  0
   -4.8951  -16.0621    0.0000 C   0  0  0  0  0  0  0  0  0  0  0  0
   -3.5974  -16.8072    0.0000 C   0  0  0  0  0  0  0  0  0  0  0  0
    6.7847  -13.7939    0.0000 Cl  0  0  0  0  0  0  0  0  0  0  0  0
   -3.5929  -12.3061    0.0000 O   0  0  0  0  0  0  0  0  0  0  0  0
   -2.2923  -11.5587    0.0000 C   0  0  0  0  0  0  0  0  0  0  0  0
   -3.5931  -18.3072    0.0000 O   0  0  0  0  0  0  0  0  0  0  0  0
   -4.8900  -19.0610    0.0000 C   0  0  0  0  0  0  0  0  0  0  0  0
   -6.1967  -13.8041    0.0000 S   0  0  0  0  0  0  0  0  0  0  0  0
   -5.4623  -12.4992    0.0000 O   0  0  0  0  0  0  0  0  0  0  0  0
   -6.9623  -15.0910    0.0000 O   0  0  0  0  0  0  0  0  0  0  0  0
   -7.4956  -13.0539    0.0000 C   0  0  0  0  0  0  0  0  0  0  0  0
  4  7  1  0  0  0  0
 13 15  1  0  0  0  0
  3  4  2  0  0  0  0
 15 16  2  0  0  0  0
  7  8  1  0  0  0  0
 16 17  1  0  0  0  0
 17 18  2  0  0  0  0
  8  9  1  0  0  0  0
 18 19  1  0  0  0  0
  4  5  1  0  0  0  0
 19 20  2  0  0  0  0
 20 15  1  0  0  0  0
  6 10  1  0  0  0  0
  5 21  1  0  0  0  0
  2  3  1  0  0  0  0
 17 22  1  0  0  0  0
  2 11  1  0  0  0  0
 22 23  1  0  0  0  0
  5  6  2  0  0  0  0
 20 24  1  0  0  0  0
 11 12  1  0  0  0  0
 24 25  1  0  0  0  0
  6  1  1  0  0  0  0
 18 26  1  0  0  0  0
 12 13  1  0  0  0  0
 26 27  2  0  0  0  0
  1  2  2  0  0  0  0
 26 28  2  0  0  0  0
 12 14  2  0  0  0  0
 26 29  1  0  0  0  0
M  END
> <Value>
5.899998417198648

> <Relation>
<

> <SourceURI>
mol:CHEMBL210928

$$$$

Generated by Molecular Materials Informatics

 19 21  0  0  0  0  0  0  0  0999 V2000
    2.3812    7.6729    0.0000 Br  0  0  0  0  0  0  0  0  0  0  0  0
   -0.3444   -1.0406    0.0000 S   0  0  0  0  0  0  0  0  0  0  0  0
   -3.4761   -1.1260    0.0000 O   0  0  0  0  0  0  0  0  0  0  0  0
    3.6803   -0.5771    0.0000 N   0  0  0  0  0  0  0  0  0  0  0  0
   -3.4761    1.4720    0.0000 N   0  0  0  0  0  0  0  0  0  0  0  0
    1.0821    0.9229    0.0000 C   0  0  0  0  0  0  0  0  0  0  0  0
    1.0821   -0.5771    0.0000 C   0  0  0  0  0  0  0  0  0  0  0  0
    2.3812    1.6729    0.0000 C   0  0  0  0  0  0  0  0  0  0  0  0
   -1.2261    0.1729    0.0000 C   0  0  0  0  0  0  0  0  0  0  0  0
   -0.3444    1.3865    0.0000 C   0  0  0  0  0  0  0  0  0  0  0  0
    2.3812    3.1729    0.0000 C   0  0  0  0  0  0  0  0  0  0  0  0
    2.3812   -1.3271    0.0000 C   0  0  0  0  0  0  0  0  0  0  0  0
    3.6803    0.9229    0.0000 C   0  0  0  0  0  0  0  0  0  0  0  0
   -2.7261    0.1729    0.0000 C   0  0  0  0  0  0  0  0  0  0  0  0
    1.0821    3.9229    0.0000 C   0  0  0  0  0  0  0  0  0  0  0  0
    3.6803    3.9229    0.0000 C   0  0  0  0  0  0  0  0  0  0  0  0
    1.0821    5.4229    0.0000 C   0  0  0  0  0  0  0  0  0  0  0  0
    3.6803    5.4229    0.0000 C   0  0  0  0  0  0  0  0  0  0  0  0
    2.3812    6.1729    0.0000 C   0  0  0  0  0  0  0  0  0  0  0  0
  1 19  1  0  0  0  0
  2  7  1  0  0  0  0
  2  9  1  0  0  0  0
  3 14  2  0  0  0  0
  4 12  1  0  0  0  0
  4 13  2  0  0  0  0
  5 14  1  0  0  0  0
  6  7  1  0  0  0  0
  6  8  2  0  0  0  0
  6 10  1  0  0  0  0
  7 12  2  0  0  0  0
  8 11  1  0  0  0  0
  8 13  1  0  0  0  0
  9 10  2  0  0  0  0
  9 14  1  0  0  0  0
 11 15  2  0  0  0  0
 11 16  1  0  0  0  0
 15 17  1  0  0  0  0
 16 18  2  0  0  0  0
 17 19  2  0  0  0  0
 18 19  1  0  0  0  0
M  END
> <Value>
6.499996931948306

> <Relation>
=

> <SourceURI>
mol:CHEMBL1978195

$$$$

Generated by Molecular Materials Informatics

 36 40  0  0  0  0  0  0  0  0999 V2000
   -8.8267  -12.0293    0.0000 F   0  0  0  0  0  0  0  0  0  0  0  0
   -6.8960  -10.2907    0.0000 O   0  0  0  0  0  0  0  0  0  0  0  0
   -1.6438   -2.5342    0.0000 O   0  0  0  0  0  0  0  0  0  0  0  0
    2.2177    3.3698    0.0000 N   0  0  0  0  0  0  0  0  0  0  0  0
   -1.5672   -6.5020    0.0000 N   0  0  0  0  0  0  0  0  0  0  0  0
   -9.9070   -6.9467    0.0000 N   0  0  0  0  0  0  0  0  0  0  0  0
   -0.7169    0.3191    0.0000 N   0  0  0  0  0  0  0  0  0  0  0  0
   -7.4361   -7.7495    0.0000 C   0  0  0  0  0  0  0  0  0  0  0  0
   -5.5054   -6.0111    0.0000 C   0  0  0  0  0  0  0  0  0  0  0  0
   -7.8996   -9.1760    0.0000 C   0  0  0  0  0  0  0  0  0  0  0  0
   -8.4398   -6.6347    0.0000 C   0  0  0  0  0  0  0  0  0  0  0  0
   -5.9689   -7.4376    0.0000 C   0  0  0  0  0  0  0  0  0  0  0  0
   -9.3669   -9.4880    0.0000 C   0  0  0  0  0  0  0  0  0  0  0  0
   -4.0381   -5.6991    0.0000 C   0  0  0  0  0  0  0  0  0  0  0  0
    3.6442    1.4064    0.0000 C   0  0  0  0  0  0  0  0  0  0  0  0
    2.2177    0.9427    0.0000 C   0  0  0  0  0  0  0  0  0  0  0  0
    3.6442    2.9064    0.0000 C   0  0  0  0  0  0  0  0  0  0  0  0
   -6.5090   -4.8964    0.0000 C   0  0  0  0  0  0  0  0  0  0  0  0
   -7.9763   -5.2082    0.0000 C   0  0  0  0  0  0  0  0  0  0  0  0
   -9.8303  -10.9146    0.0000 C   0  0  0  0  0  0  0  0  0  0  0  0
   -3.5745   -4.2725    0.0000 C   0  0  0  0  0  0  0  0  0  0  0  0
   -2.1074   -3.9607    0.0000 C   0  0  0  0  0  0  0  0  0  0  0  0
    1.3361    2.1564    0.0000 C   0  0  0  0  0  0  0  0  0  0  0  0
   -3.0343   -6.8138    0.0000 C   0  0  0  0  0  0  0  0  0  0  0  0
  -10.3705   -8.3733    0.0000 C   0  0  0  0  0  0  0  0  0  0  0  0
    1.7542   -0.4838    0.0000 C   0  0  0  0  0  0  0  0  0  0  0  0
    4.9433    0.6564    0.0000 C   0  0  0  0  0  0  0  0  0  0  0  0
    4.9433    3.6564    0.0000 C   0  0  0  0  0  0  0  0  0  0  0  0
    0.2870   -0.7956    0.0000 C   0  0  0  0  0  0  0  0  0  0  0  0
   -1.1036   -5.0755    0.0000 C   0  0  0  0  0  0  0  0  0  0  0  0
  -11.2976  -11.2264    0.0000 C   0  0  0  0  0  0  0  0  0  0  0  0
    6.2424    1.4064    0.0000 C   0  0  0  0  0  0  0  0  0  0  0  0
    6.2424    2.9064    0.0000 C   0  0  0  0  0  0  0  0  0  0  0  0
  -11.8378   -8.6851    0.0000 C   0  0  0  0  0  0  0  0  0  0  0  0
   -0.1767   -2.2224    0.0000 C   0  0  0  0  0  0  0  0  0  0  0  0
  -12.3012  -10.1116    0.0000 C   0  0  0  0  0  0  0  0  0  0  0  0
  1 20  1  0  0  0  0
  2 10  2  0  0  0  0
  3 22  1  0  0  0  0
  3 35  1  0  0  0  0
  4 17  1  0  0  0  0
  4 23  1  0  0  0  0
  5 24  2  0  0  0  0
  5 30  1  0  0  0  0
  6 11  1  0  0  0  0
  7 29  1  0  0  0  0
  8 10  1  0  0  0  0
  8 11  1  0  0  0  0
  8 12  2  0  0  0  0
  9 12  1  0  0  0  0
  9 14  1  0  0  0  0
  9 18  2  0  0  0  0
 10 13  1  0  0  0  0
 11 19  2  0  0  0  0
 13 20  1  0  0  0  0
 13 25  2  0  0  0  0
 14 21  2  0  0  0  0
 14 24  1  0  0  0  0
 15 16  1  0  0  0  0
 15 17  1  0  0  0  0
 15 27  2  0  0  0  0
 16 23  2  0  0  0  0
 16 26  1  0  0  0  0
 17 28  2  0  0  0  0
 18 19  1  0  0  0  0
 20 31  2  0  0  0  0
 21 22  1  0  0  0  0
 22 30  2  0  0  0  0
 25 34  1  0  0  0  0
 26 29  1  0  0  0  0
 27 32  1  0  0  0  0
 28 33  1  0  0  0  0
 29 35  1  0  0  0  0
 31 36  1  0  0  0  0
 32 33  2  0  0  0  0
 34 36  2  0  0  0  0
M  END
> <Value>
5.899998417198648

> <Relation>
<

> <SourceURI>
mol:CHEMBL1994361

$$$$

Generated by Molecular Materials Informatics

 32 35  0  0  0  0  0  0  0  0999 V2000
   -2.9823   -3.0654    0.0000 S   0  0  0  0  0  0  0  0  0  0  0  0
    9.1906   -3.3772    0.0000 O   0  0  0  0  0  0  0  0  0  0  0  0
   -0.2275   -3.0736    0.0000 O   0  0  0  0  0  0  0  0  0  0  0  0
    4.9686   -3.0736    0.0000 O   0  0  0  0  0  0  0  0  0  0  0  0
   -4.1957   -0.9635    0.0000 N   0  0  0  0  0  0  0  0  0  0  0  0
   -6.8899   -8.8584    0.0000 N   0  0  0  0  0  0  0  0  0  0  0  0
   -1.5265   -0.8237    0.0000 N   0  0  0  0  0  0  0  0  0  0  0  0
   -6.1399  -10.1574    0.0000 N   0  0  0  0  0  0  0  0  0  0  0  0
    1.0716   -0.8237    0.0000 N   0  0  0  0  0  0  0  0  0  0  0  0
    6.2676   -0.8237    0.0000 N   0  0  0  0  0  0  0  0  0  0  0  0
    7.7234   -3.0654    0.0000 N   0  0  0  0  0  0  0  0  0  0  0  0
   -4.4494   -3.3772    0.0000 C   0  0  0  0  0  0  0  0  0  0  0  0
   -5.0595   -4.7476    0.0000 C   0  0  0  0  0  0  0  0  0  0  0  0
   -5.1994   -2.0782    0.0000 C   0  0  0  0  0  0  0  0  0  0  0  0
   -2.8254   -1.5737    0.0000 C   0  0  0  0  0  0  0  0  0  0  0  0
   -6.2797   -7.4880    0.0000 C   0  0  0  0  0  0  0  0  0  0  0  0
   -4.1779   -5.9610    0.0000 C   0  0  0  0  0  0  0  0  0  0  0  0
   -6.5513   -4.9043    0.0000 C   0  0  0  0  0  0  0  0  0  0  0  0
   -4.7879   -7.3313    0.0000 C   0  0  0  0  0  0  0  0  0  0  0  0
   -7.1613   -6.2746    0.0000 C   0  0  0  0  0  0  0  0  0  0  0  0
   -6.6911   -1.9215    0.0000 C   0  0  0  0  0  0  0  0  0  0  0  0
   -0.2275   -1.5737    0.0000 C   0  0  0  0  0  0  0  0  0  0  0  0
   -8.3569   -9.1702    0.0000 C   0  0  0  0  0  0  0  0  0  0  0  0
    7.5665   -1.5737    0.0000 C   0  0  0  0  0  0  0  0  0  0  0  0
   -7.1435  -11.2721    0.0000 C   0  0  0  0  0  0  0  0  0  0  0  0
   -8.5138  -10.6620    0.0000 C   0  0  0  0  0  0  0  0  0  0  0  0
    9.9406   -2.0782    0.0000 C   0  0  0  0  0  0  0  0  0  0  0  0
    8.9368   -0.9635    0.0000 C   0  0  0  0  0  0  0  0  0  0  0  0
    4.9686   -1.5737    0.0000 C   0  0  0  0  0  0  0  0  0  0  0  0
    2.3706   -1.5737    0.0000 C   0  0  0  0  0  0  0  0  0  0  0  0
    3.6695   -0.8237    0.0000 C   0  0  0  0  0  0  0  0  0  0  0  0
   11.4322   -1.9215    0.0000 C   0  0  0  0  0  0  0  0  0  0  0  0
  1 12  1  0  0  0  0
  1 15  1  0  0  0  0
  2 11  1  0  0  0  0
  2 27  1  0  0  0  0
  3 22  2  0  0  0  0
  4 29  2  0  0  0  0
  5 14  1  0  0  0  0
  5 15  2  0  0  0  0
  6  8  1  0  0  0  0
  6 16  1  0  0  0  0
  6 23  1  0  0  0  0
  7 15  1  0  0  0  0
  7 22  1  0  0  0  0
  8 25  2  0  0  0  0
  9 22  1  0  0  0  0
  9 30  1  0  0  0  0
 10 24  1  0  0  0  0
 10 29  1  0  0  0  0
 11 24  2  0  0  0  0
 12 13  1  0  0  0  0
 12 14  2  0  0  0  0
 13 17  2  0  0  0  0
 13 18  1  0  0  0  0
 14 21  1  0  0  0  0
 16 19  2  0  0  0  0
 16 20  1  0  0  0  0
 17 19  1  0  0  0  0
 18 20  2  0  0  0  0
 23 26  2  0  0  0  0
 24 28  1  0  0  0  0
 25 26  1  0  0  0  0
 27 28  2  0  0  0  0
 27 32  1  0  0  0  0
 29 31  1  0  0  0  0
 30 31  1  0  0  0  0
M  END
> <Value>
5.899998417198648

> <Relation>
<

> <SourceURI>
mol:CHEMBL1986603

$$$$

Generated by Molecular Materials Informatics

 29 31  0  0  0  0  0  0  0  0999 V2000
    0.1133    0.4134    0.0000 C   0  0  0  0  0  0  0  0  0  0  0  0
    1.4088    1.1634    0.0000 C   0  0  0  0  0  0  0  0  0  0  0  0
    0.1133   -1.0866    0.0000 C   0  0  0  0  0  0  0  0  0  0  0  0
   -1.1822    1.1634    0.0000 C   0  0  0  0  0  0  0  0  0  0  0  0
    2.7042    0.3983    0.0000 N   0  0  0  0  0  0  0  0  0  0  0  0
   -1.1822   -1.8366    0.0000 C   0  0  0  0  0  0  0  0  0  0  0  0
    1.4239    2.6483    0.0000 N   0  0  0  0  0  0  0  0  0  0  0  0
   -2.4625    0.4134    0.0000 C   0  0  0  0  0  0  0  0  0  0  0  0
   -2.4625   -1.0866    0.0000 C   0  0  0  0  0  0  0  0  0  0  0  0
    6.6133    2.6407    0.0000 C   0  0  0  0  0  0  0  0  0  0  0  0
    1.4011   -1.8517    0.0000 N   0  0  0  0  0  0  0  0  0  0  0  0
    7.9088    1.8907    0.0000 C   0  0  0  0  0  0  0  0  0  0  0  0
    2.7042   -1.1017    0.0000 C   0  0  0  0  0  0  0  0  0  0  0  0
    2.7269    3.3983    0.0000 C   0  0  0  0  0  0  0  0  0  0  0  0
    5.3179    3.3907    0.0000 C   0  0  0  0  0  0  0  0  0  0  0  0
    3.9997    2.6483    0.0000 C   0  0  0  0  0  0  0  0  0  0  0  0
   -3.7731    1.1634    0.0000 O   0  0  0  0  0  0  0  0  0  0  0  0
   -3.7731   -1.8517    0.0000 O   0  0  0  0  0  0  0  0  0  0  0  0
    3.9997    5.6407    0.0000 C   0  0  0  0  0  0  0  0  0  0  0  0
   -5.0534   -5.6017    0.0000 O   0  0  0  0  0  0  0  0  0  0  0  0
   -7.6671    0.4134    0.0000 O   0  0  0  0  0  0  0  0  0  0  0  0
    2.7193    4.8983    0.0000 C   0  0  0  0  0  0  0  0  0  0  0  0
    5.3179    4.8907    0.0000 C   0  0  0  0  0  0  0  0  0  0  0  0
   -3.7731   -3.3517    0.0000 C   0  0  0  0  0  0  0  0  0  0  0  0
   -5.0762    0.4134    0.0000 C   0  0  0  0  0  0  0  0  0  0  0  0
   -5.0685   -4.1017    0.0000 C   0  0  0  0  0  0  0  0  0  0  0  0
   -6.3716    1.1634    0.0000 C   0  0  0  0  0  0  0  0  0  0  0  0
   -7.6671   -1.0866    0.0000 C   0  0  0  0  0  0  0  0  0  0  0  0
   -3.7580   -6.3366    0.0000 C   0  0  0  0  0  0  0  0  0  0  0  0
  2  1  1  0  0  0  0
  3  1  2  0  0  0  0
  4  1  1  0  0  0  0
  5  2  2  0  0  0  0
  6  3  1  0  0  0  0
  7  2  1  0  0  0  0
  8  4  2  0  0  0  0
  9  8  1  0  0  0  0
 10 15  1  0  0  0  0
 11  3  1  0  0  0  0
 12 10  3  0  0  0  0
 13 11  2  0  0  0  0
 14  7  1  0  0  0  0
 15 16  1  0  0  0  0
 16 14  2  0  0  0  0
 17  8  1  0  0  0  0
 18  9  1  0  0  0  0
 19 22  2  0  0  0  0
 20 26  1  0  0  0  0
 21 27  1  0  0  0  0
 22 14  1  0  0  0  0
 23 19  1  0  0  0  0
 24 18  1  0  0  0  0
 25 17  1  0  0  0  0
 26 24  1  0  0  0  0
 27 25  1  0  0  0  0
 28 21  1  0  0  0  0
 29 20  1  0  0  0  0
  6  9  2  0  0  0  0
  5 13  1  0  0  0  0
 15 23  2  0  0  0  0
M  END
> <Value>
5.300000202445418

> <Relation>
<

> <SourceURI>
mol:CHEMBL553

$$$$

Generated by Molecular Materials Informatics

 29 33  0  0  0  0  0  0  0  0999 V2000
   -6.5296   -8.2367    0.0000 S   0  0  0  0  0  0  0  0  0  0  0  0
   -2.0580   -3.3894    0.0000 O   0  0  0  0  0  0  0  0  0  0  0  0
    1.8035    2.5146    0.0000 N   0  0  0  0  0  0  0  0  0  0  0  0
  -10.8745   -7.1527    0.0000 N   0  0  0  0  0  0  0  0  0  0  0  0
   -1.9814   -7.3572    0.0000 N   0  0  0  0  0  0  0  0  0  0  0  0
   -1.1311   -0.5361    0.0000 N   0  0  0  0  0  0  0  0  0  0  0  0
   -5.9196   -6.8663    0.0000 C   0  0  0  0  0  0  0  0  0  0  0  0
   -8.0214   -8.0798    0.0000 C   0  0  0  0  0  0  0  0  0  0  0  0
   -8.3332   -6.6125    0.0000 C   0  0  0  0  0  0  0  0  0  0  0  0
   -4.4523   -6.5543    0.0000 C   0  0  0  0  0  0  0  0  0  0  0  0
   -7.0342   -5.8625    0.0000 C   0  0  0  0  0  0  0  0  0  0  0  0
    3.2300    0.5511    0.0000 C   0  0  0  0  0  0  0  0  0  0  0  0
    1.8035    0.0875    0.0000 C   0  0  0  0  0  0  0  0  0  0  0  0
    3.2300    2.0511    0.0000 C   0  0  0  0  0  0  0  0  0  0  0  0
   -3.9887   -5.1278    0.0000 C   0  0  0  0  0  0  0  0  0  0  0  0
   -2.5216   -4.8160    0.0000 C   0  0  0  0  0  0  0  0  0  0  0  0
   -9.1362   -9.0834    0.0000 C   0  0  0  0  0  0  0  0  0  0  0  0
   -9.7598   -6.1491    0.0000 C   0  0  0  0  0  0  0  0  0  0  0  0
   -3.4485   -7.6691    0.0000 C   0  0  0  0  0  0  0  0  0  0  0  0
    0.9219    1.3011    0.0000 C   0  0  0  0  0  0  0  0  0  0  0  0
    1.3400   -1.3391    0.0000 C   0  0  0  0  0  0  0  0  0  0  0  0
    4.5291   -0.1989    0.0000 C   0  0  0  0  0  0  0  0  0  0  0  0
   -1.5178   -5.9307    0.0000 C   0  0  0  0  0  0  0  0  0  0  0  0
    4.5291    2.8011    0.0000 C   0  0  0  0  0  0  0  0  0  0  0  0
  -10.5627   -8.6200    0.0000 C   0  0  0  0  0  0  0  0  0  0  0  0
   -0.1272   -1.6509    0.0000 C   0  0  0  0  0  0  0  0  0  0  0  0
   -0.5909   -3.0776    0.0000 C   0  0  0  0  0  0  0  0  0  0  0  0
    5.8282    0.5511    0.0000 C   0  0  0  0  0  0  0  0  0  0  0  0
    5.8282    2.0511    0.0000 C   0  0  0  0  0  0  0  0  0  0  0  0
  1  7  1  0  0  0  0
  1  8  1  0  0  0  0
  2 16  1  0  0  0  0
  2 27  1  0  0  0  0
  3 14  1  0  0  0  0
  3 20  1  0  0  0  0
  4 18  1  0  0  0  0
  4 25  2  0  0  0  0
  5 19  2  0  0  0  0
  5 23  1  0  0  0  0
  6 26  1  0  0  0  0
  7 10  1  0  0  0  0
  7 11  2  0  0  0  0
  8  9  1  0  0  0  0
  8 17  2  0  0  0  0
  9 11  1  0  0  0  0
  9 18  2  0  0  0  0
 10 15  2  0  0  0  0
 10 19  1  0  0  0  0
 12 13  1  0  0  0  0
 12 14  1  0  0  0  0
 12 22  2  0  0  0  0
 13 20  2  0  0  0  0
 13 21  1  0  0  0  0
 14 24  2  0  0  0  0
 15 16  1  0  0  0  0
 16 23  2  0  0  0  0
 17 25  1  0  0  0  0
 21 26  1  0  0  0  0
 22 28  1  0  0  0  0
 24 29  1  0  0  0  0
 26 27  1  0  0  0  0
 28 29  2  0  0  0  0
M  END
> <Value>
5.899998417198648

> <Relation>
=

> <SourceURI>
mol:CHEMBL1972840

$$$$

Generated by Molecular Materials Informatics

 36 40  0  0  0  0  0  0  0  0999 V2000
    1.2273    3.2375    0.0000 S   0  0  0  0  0  0  0  0  0  0  0  0
   -3.0978   -4.0930    0.0000 O   0  0  0  0  0  0  0  0  0  0  0  0
    2.0497   11.1295    0.0000 O   0  0  0  0  0  0  0  0  0  0  0  0
   -8.4265   -7.8817    0.0000 O   0  0  0  0  0  0  0  0  0  0  0  0
    5.2520    1.2739    0.0000 N   0  0  0  0  0  0  0  0  0  0  0  0
    3.2030    7.3323    0.0000 N   0  0  0  0  0  0  0  0  0  0  0  0
    3.9530   -0.9761    0.0000 N   0  0  0  0  0  0  0  0  0  0  0  0
    4.7030    7.3323    0.0000 N   0  0  0  0  0  0  0  0  0  0  0  0
   -0.6269   -4.8959    0.0000 N   0  0  0  0  0  0  0  0  0  0  0  0
   -2.5576   -6.6343    0.0000 N   0  0  0  0  0  0  0  0  0  0  0  0
    2.6539    1.2739    0.0000 C   0  0  0  0  0  0  0  0  0  0  0  0
    2.6539    2.7739    0.0000 C   0  0  0  0  0  0  0  0  0  0  0  0
    1.2273    0.8105    0.0000 C   0  0  0  0  0  0  0  0  0  0  0  0
    3.9530    3.5239    0.0000 C   0  0  0  0  0  0  0  0  0  0  0  0
    3.9530    0.5239    0.0000 C   0  0  0  0  0  0  0  0  0  0  0  0
    3.9530    5.0239    0.0000 C   0  0  0  0  0  0  0  0  0  0  0  0
    0.7639   -0.6161    0.0000 C   0  0  0  0  0  0  0  0  0  0  0  0
    0.3457    2.0239    0.0000 C   0  0  0  0  0  0  0  0  0  0  0  0
    5.2520    2.7739    0.0000 C   0  0  0  0  0  0  0  0  0  0  0  0
    2.7393    5.9057    0.0000 C   0  0  0  0  0  0  0  0  0  0  0  0
    5.1664    5.9057    0.0000 C   0  0  0  0  0  0  0  0  0  0  0  0
    1.7675   -1.7308    0.0000 C   0  0  0  0  0  0  0  0  0  0  0  0
   -0.7034   -0.9279    0.0000 C   0  0  0  0  0  0  0  0  0  0  0  0
   -0.1632   -3.4694    0.0000 C   0  0  0  0  0  0  0  0  0  0  0  0
    1.3039   -3.1574    0.0000 C   0  0  0  0  0  0  0  0  0  0  0  0
   -1.1670   -2.3546    0.0000 C   0  0  0  0  0  0  0  0  0  0  0  0
    2.3213    8.5457    0.0000 C   0  0  0  0  0  0  0  0  0  0  0  0
   -2.0939   -5.2077    0.0000 C   0  0  0  0  0  0  0  0  0  0  0  0
    2.9313    9.9161    0.0000 C   0  0  0  0  0  0  0  0  0  0  0  0
   -4.0247   -6.9463    0.0000 C   0  0  0  0  0  0  0  0  0  0  0  0
   -4.4883   -8.3728    0.0000 C   0  0  0  0  0  0  0  0  0  0  0  0
   -5.0285   -5.8315    0.0000 C   0  0  0  0  0  0  0  0  0  0  0  0
   -6.9592   -7.5699    0.0000 C   0  0  0  0  0  0  0  0  0  0  0  0
   -5.9556   -8.6846    0.0000 C   0  0  0  0  0  0  0  0  0  0  0  0
   -6.4958   -6.1434    0.0000 C   0  0  0  0  0  0  0  0  0  0  0  0
   -8.8899   -9.3084    0.0000 C   0  0  0  0  0  0  0  0  0  0  0  0
  1 12  1  0  0  0  0
  1 18  1  0  0  0  0
  2 28  2  0  0  0  0
  3 29  1  0  0  0  0
  4 33  1  0  0  0  0
  4 36  1  0  0  0  0
  5 15  1  0  0  0  0
  5 19  2  0  0  0  0
  6  8  1  0  0  0  0
  6 20  1  0  0  0  0
  6 27  1  0  0  0  0
  7 15  1  0  0  0  0
  8 21  2  0  0  0  0
  9 24  1  0  0  0  0
  9 28  1  0  0  0  0
 10 28  1  0  0  0  0
 10 30  1  0  0  0  0
 11 12  1  0  0  0  0
 11 13  1  0  0  0  0
 11 15  2  0  0  0  0
 12 14  2  0  0  0  0
 13 17  1  0  0  0  0
 13 18  2  0  0  0  0
 14 16  1  0  0  0  0
 14 19  1  0  0  0  0
 16 20  2  0  0  0  0
 16 21  1  0  0  0  0
 17 22  2  0  0  0  0
 17 23  1  0  0  0  0
 22 25  1  0  0  0  0
 23 26  2  0  0  0  0
 24 25  2  0  0  0  0
 24 26  1  0  0  0  0
 27 29  1  0  0  0  0
 30 31  2  0  0  0  0
 30 32  1  0  0  0  0
 31 34  1  0  0  0  0
 32 35  2  0  0  0  0
 33 34  2  0  0  0  0
 33 35  1  0  0  0  0
M  END
> <Value>
5.899998417198648

> <Relation>
<

> <SourceURI>
mol:CHEMBL1977148

$$$$

Generated by Molecular Materials Informatics

 17 18  0  0  0  0  0  0  0  0999 V2000
    3.1279   -0.2548    0.0000 S   0  0  0  0  0  0  0  0  0  0  0  0
    0.2828   -2.8950    0.0000 O   0  0  0  0  0  0  0  0  0  0  0  0
    1.9145    2.1268    0.0000 O   0  0  0  0  0  0  0  0  0  0  0  0
    4.0894   -8.0626    0.0000 O   0  0  0  0  0  0  0  0  0  0  0  0
    1.1057   -8.3762    0.0000 O   0  0  0  0  0  0  0  0  0  0  0  0
    0.7010   -0.2548    0.0000 N   0  0  0  0  0  0  0  0  0  0  0  0
    2.6645   -1.6815    0.0000 C   0  0  0  0  0  0  0  0  0  0  0  0
    1.1645   -1.6815    0.0000 C   0  0  0  0  0  0  0  0  0  0  0  0
    2.9361   -4.2653    0.0000 C   0  0  0  0  0  0  0  0  0  0  0  0
    3.5461   -2.8950    0.0000 C   0  0  0  0  0  0  0  0  0  0  0  0
    1.9145    0.6268    0.0000 C   0  0  0  0  0  0  0  0  0  0  0  0
    3.2075   -6.8491    0.0000 C   0  0  0  0  0  0  0  0  0  0  0  0
    3.8177   -5.4788    0.0000 C   0  0  0  0  0  0  0  0  0  0  0  0
    1.7159   -7.0058    0.0000 C   0  0  0  0  0  0  0  0  0  0  0  0
    1.4443   -4.4220    0.0000 C   0  0  0  0  0  0  0  0  0  0  0  0
    0.8341   -5.7924    0.0000 C   0  0  0  0  0  0  0  0  0  0  0  0
    3.4792   -9.4329    0.0000 C   0  0  0  0  0  0  0  0  0  0  0  0
  1  7  1  0  0  0  0
  1 11  1  0  0  0  0
  2  8  2  0  0  0  0
  3 11  2  0  0  0  0
  4 12  1  0  0  0  0
  4 17  1  0  0  0  0
  5 14  1  0  0  0  0
  6  8  1  0  0  0  0
  6 11  1  0  0  0  0
  7  8  1  0  0  0  0
  7 10  2  0  0  0  0
 10  9  1  0  0  0  0
  9 13  1  0  0  0  0
  9 15  2  0  0  0  0
 12 13  2  0  0  0  0
 12 14  1  0  0  0  0
 14 16  2  0  0  0  0
 15 16  1  0  0  0  0
M  END
> <Value>
6.900008766455316

> <Relation>
=

> <SourceURI>
mol:CHEMBL2003286

$$$$

Generated by Molecular Materials Informatics

 31 33  0  0  0  0  0  0  0  0999 V2000
   11.0291   -2.7375    0.0000 F   0  0  0  0  0  0  0  0  0  0  0  0
   12.5291   -1.2375    0.0000 F   0  0  0  0  0  0  0  0  0  0  0  0
    9.5291   -1.2375    0.0000 F   0  0  0  0  0  0  0  0  0  0  0  0
    0.6368    0.2625    0.0000 O   0  0  0  0  0  0  0  0  0  0  0  0
    7.1320    1.0125    0.0000 O   0  0  0  0  0  0  0  0  0  0  0  0
   -1.9612   -5.7375    0.0000 O   0  0  0  0  0  0  0  0  0  0  0  0
    8.4309    3.2625    0.0000 N   0  0  0  0  0  0  0  0  0  0  0  0
    5.8329    3.2625    0.0000 N   0  0  0  0  0  0  0  0  0  0  0  0
    0.6368   -4.2375    0.0000 N   0  0  0  0  0  0  0  0  0  0  0  0
   -3.2603   -3.4875    0.0000 N   0  0  0  0  0  0  0  0  0  0  0  0
   11.0291    0.2625    0.0000 C   0  0  0  0  0  0  0  0  0  0  0  0
   11.0291   -1.2375    0.0000 C   0  0  0  0  0  0  0  0  0  0  0  0
    9.7300    2.5125    0.0000 C   0  0  0  0  0  0  0  0  0  0  0  0
    9.7300    1.0125    0.0000 C   0  0  0  0  0  0  0  0  0  0  0  0
    0.6368   -1.2375    0.0000 C   0  0  0  0  0  0  0  0  0  0  0  0
    1.9359    1.0125    0.0000 C   0  0  0  0  0  0  0  0  0  0  0  0
   -0.6623   -3.4875    0.0000 C   0  0  0  0  0  0  0  0  0  0  0  0
   12.3282    1.0125    0.0000 C   0  0  0  0  0  0  0  0  0  0  0  0
    4.5338    2.5125    0.0000 C   0  0  0  0  0  0  0  0  0  0  0  0
   -0.6623   -1.9875    0.0000 C   0  0  0  0  0  0  0  0  0  0  0  0
    7.1320    2.5125    0.0000 C   0  0  0  0  0  0  0  0  0  0  0  0
   11.0291    3.2625    0.0000 C   0  0  0  0  0  0  0  0  0  0  0  0
   12.3282    2.5125    0.0000 C   0  0  0  0  0  0  0  0  0  0  0  0
    1.9359    2.5125    0.0000 C   0  0  0  0  0  0  0  0  0  0  0  0
    3.2349    0.2625    0.0000 C   0  0  0  0  0  0  0  0  0  0  0  0
   -1.9612   -4.2375    0.0000 C   0  0  0  0  0  0  0  0  0  0  0  0
    1.9359   -1.9875    0.0000 C   0  0  0  0  0  0  0  0  0  0  0  0
    3.2349    3.2625    0.0000 C   0  0  0  0  0  0  0  0  0  0  0  0
    4.5338    1.0125    0.0000 C   0  0  0  0  0  0  0  0  0  0  0  0
    1.9359   -3.4875    0.0000 C   0  0  0  0  0  0  0  0  0  0  0  0
   -4.5594   -4.2375    0.0000 C   0  0  0  0  0  0  0  0  0  0  0  0
  1 12  1  0  0  0  0
  2 12  1  0  0  0  0
  3 12  1  0  0  0  0
  4 15  1  0  0  0  0
  4 16  1  0  0  0  0
  5 21  2  0  0  0  0
  6 26  2  0  0  0  0
  7 13  1  0  0  0  0
  7 21  1  0  0  0  0
  8 19  1  0  0  0  0
  8 21  1  0  0  0  0
  9 17  1  0  0  0  0
  9 30  2  0  0  0  0
 10 26  1  0  0  0  0
 10 31  1  0  0  0  0
 11 12  1  0  0  0  0
 11 14  2  0  0  0  0
 11 18  1  0  0  0  0
 13 14  1  0  0  0  0
 13 22  2  0  0  0  0
 15 20  1  0  0  0  0
 15 27  2  0  0  0  0
 16 24  2  0  0  0  0
 16 25  1  0  0  0  0
 17 20  2  0  0  0  0
 17 26  1  0  0  0  0
 18 23  2  0  0  0  0
 19 28  2  0  0  0  0
 19 29  1  0  0  0  0
 22 23  1  0  0  0  0
 24 28  1  0  0  0  0
 25 29  2  0  0  0  0
 27 30  1  0  0  0  0
M  END
> <Value>
5.899998417198648

> <Relation>
<

> <SourceURI>
mol:CHEMBL1992306

$$$$

Generated by Molecular Materials Informatics

 36 40  0  0  0  0  0  0  0  0999 V2000
    0.7929    3.4182    0.0000 S   0  0  0  0  0  0  0  0  0  0  0  0
   -6.8535   -9.9306    0.0000 F   0  0  0  0  0  0  0  0  0  0  0  0
   -3.5322   -3.9124    0.0000 O   0  0  0  0  0  0  0  0  0  0  0  0
    1.6153   11.3102    0.0000 O   0  0  0  0  0  0  0  0  0  0  0  0
    4.8176    1.4545    0.0000 N   0  0  0  0  0  0  0  0  0  0  0  0
    2.7685    7.5129    0.0000 N   0  0  0  0  0  0  0  0  0  0  0  0
    3.5185   -0.7955    0.0000 N   0  0  0  0  0  0  0  0  0  0  0  0
    4.2685    7.5129    0.0000 N   0  0  0  0  0  0  0  0  0  0  0  0
   -1.0613   -4.7153    0.0000 N   0  0  0  0  0  0  0  0  0  0  0  0
   -2.9920   -6.4537    0.0000 N   0  0  0  0  0  0  0  0  0  0  0  0
    2.2195    1.4545    0.0000 C   0  0  0  0  0  0  0  0  0  0  0  0
    2.2195    2.9545    0.0000 C   0  0  0  0  0  0  0  0  0  0  0  0
    0.7929    0.9911    0.0000 C   0  0  0  0  0  0  0  0  0  0  0  0
    3.5185    3.7045    0.0000 C   0  0  0  0  0  0  0  0  0  0  0  0
    3.5185    0.7045    0.0000 C   0  0  0  0  0  0  0  0  0  0  0  0
    3.5185    5.2045    0.0000 C   0  0  0  0  0  0  0  0  0  0  0  0
    0.3295   -0.4355    0.0000 C   0  0  0  0  0  0  0  0  0  0  0  0
   -0.0887    2.2045    0.0000 C   0  0  0  0  0  0  0  0  0  0  0  0
    4.8176    2.9545    0.0000 C   0  0  0  0  0  0  0  0  0  0  0  0
    2.3049    6.0863    0.0000 C   0  0  0  0  0  0  0  0  0  0  0  0
    4.7320    6.0863    0.0000 C   0  0  0  0  0  0  0  0  0  0  0  0
    1.3331   -1.5502    0.0000 C   0  0  0  0  0  0  0  0  0  0  0  0
   -1.1378   -0.7473    0.0000 C   0  0  0  0  0  0  0  0  0  0  0  0
   -0.5976   -3.2887    0.0000 C   0  0  0  0  0  0  0  0  0  0  0  0
    0.8695   -2.9767    0.0000 C   0  0  0  0  0  0  0  0  0  0  0  0
   -1.6015   -2.1740    0.0000 C   0  0  0  0  0  0  0  0  0  0  0  0
    1.8869    8.7263    0.0000 C   0  0  0  0  0  0  0  0  0  0  0  0
   -2.5284   -5.0271    0.0000 C   0  0  0  0  0  0  0  0  0  0  0  0
    2.4969   10.0967    0.0000 C   0  0  0  0  0  0  0  0  0  0  0  0
   -4.4591   -6.7657    0.0000 C   0  0  0  0  0  0  0  0  0  0  0  0
   -4.9227   -8.1922    0.0000 C   0  0  0  0  0  0  0  0  0  0  0  0
   -5.4629   -5.6509    0.0000 C   0  0  0  0  0  0  0  0  0  0  0  0
   -6.3900   -8.5040    0.0000 C   0  0  0  0  0  0  0  0  0  0  0  0
    3.9887   10.2534    0.0000 C   0  0  0  0  0  0  0  0  0  0  0  0
   -6.9302   -5.9627    0.0000 C   0  0  0  0  0  0  0  0  0  0  0  0
   -7.3936   -7.3893    0.0000 C   0  0  0  0  0  0  0  0  0  0  0  0
  1 12  1  0  0  0  0
  1 18  1  0  0  0  0
  2 33  1  0  0  0  0
  3 28  2  0  0  0  0
  4 29  1  0  0  0  0
  5 15  2  0  0  0  0
  5 19  1  0  0  0  0
  6  8  1  0  0  0  0
  6 20  1  0  0  0  0
  6 27  1  0  0  0  0
  7 15  1  0  0  0  0
  8 21  2  0  0  0  0
  9 24  1  0  0  0  0
  9 28  1  0  0  0  0
 10 28  1  0  0  0  0
 10 30  1  0  0  0  0
 11 12  2  0  0  0  0
 11 13  1  0  0  0  0
 11 15  1  0  0  0  0
 12 14  1  0  0  0  0
 13 17  1  0  0  0  0
 13 18  2  0  0  0  0
 14 16  1  0  0  0  0
 14 19  2  0  0  0  0
 16 20  2  0  0  0  0
 16 21  1  0  0  0  0
 17 22  2  0  0  0  0
 17 23  1  0  0  0  0
 22 25  1  0  0  0  0
 23 26  2  0  0  0  0
 24 25  2  0  0  0  0
 24 26  1  0  0  0  0
 27 29  1  0  0  0  0
 29 34  1  0  0  0  0
 30 31  1  0  0  0  0
 30 32  2  0  0  0  0
 31 33  2  0  0  0  0
 32 35  1  0  0  0  0
 33 36  1  0  0  0  0
 35 36  2  0  0  0  0
M  END
> <Value>
5.899998417198648

> <Relation>
<

> <SourceURI>
mol:CHEMBL2002165

$$$$

Generated by Molecular Materials Informatics

 31 34  0  0  0  0  0  0  0  0999 V2000
   -1.3923   -3.4149    0.0000 S   0  0  0  0  0  0  0  0  0  0  0  0
    3.7028    8.5535    0.0000 F   0  0  0  0  0  0  0  0  0  0  0  0
    2.5476   10.3326    0.0000 F   0  0  0  0  0  0  0  0  0  0  0  0
    1.9237    7.3983    0.0000 F   0  0  0  0  0  0  0  0  0  0  0  0
   -3.6334   10.1130    0.0000 F   0  0  0  0  0  0  0  0  0  0  0  0
   -0.7755    5.5213    0.0000 O   0  0  0  0  0  0  0  0  0  0  0  0
    1.3334   -3.7014    0.0000 N   0  0  0  0  0  0  0  0  0  0  0  0
    2.6323   -1.4514    0.0000 N   0  0  0  0  0  0  0  0  0  0  0  0
   -2.7063    7.2597    0.0000 N   0  0  0  0  0  0  0  0  0  0  0  0
    1.3334    0.7986    0.0000 N   0  0  0  0  0  0  0  0  0  0  0  0
   -3.2465    4.7184    0.0000 N   0  0  0  0  0  0  0  0  0  0  0  0
    0.0343   -1.4514    0.0000 C   0  0  0  0  0  0  0  0  0  0  0  0
   -1.3923   -0.9879    0.0000 C   0  0  0  0  0  0  0  0  0  0  0  0
    0.0343   -2.9514    0.0000 C   0  0  0  0  0  0  0  0  0  0  0  0
   -1.8559    0.4388    0.0000 C   0  0  0  0  0  0  0  0  0  0  0  0
    1.3334   -0.7014    0.0000 C   0  0  0  0  0  0  0  0  0  0  0  0
   -2.2739   -2.2014    0.0000 C   0  0  0  0  0  0  0  0  0  0  0  0
    0.7685    9.1774    0.0000 C   0  0  0  0  0  0  0  0  0  0  0  0
   -1.7026    8.3744    0.0000 C   0  0  0  0  0  0  0  0  0  0  0  0
   -3.3230    0.7506    0.0000 C   0  0  0  0  0  0  0  0  0  0  0  0
   -0.8521    1.5535    0.0000 C   0  0  0  0  0  0  0  0  0  0  0  0
    2.2356    8.8655    0.0000 C   0  0  0  0  0  0  0  0  0  0  0  0
   -0.2354    8.0626    0.0000 C   0  0  0  0  0  0  0  0  0  0  0  0
   -2.7828    3.2919    0.0000 C   0  0  0  0  0  0  0  0  0  0  0  0
    2.6323   -2.9514    0.0000 C   0  0  0  0  0  0  0  0  0  0  0  0
   -2.1661    9.8012    0.0000 C   0  0  0  0  0  0  0  0  0  0  0  0
   -3.7866    2.1772    0.0000 C   0  0  0  0  0  0  0  0  0  0  0  0
   -1.3157    2.9801    0.0000 C   0  0  0  0  0  0  0  0  0  0  0  0
    0.3048   10.6039    0.0000 C   0  0  0  0  0  0  0  0  0  0  0  0
   -1.1624   10.9159    0.0000 C   0  0  0  0  0  0  0  0  0  0  0  0
   -2.2426    5.8332    0.0000 C   0  0  0  0  0  0  0  0  0  0  0  0
  1 14  1  0  0  0  0
  1 17  1  0  0  0  0
  2 22  1  0  0  0  0
  3 22  1  0  0  0  0
  4 22  1  0  0  0  0
  5 26  1  0  0  0  0
  6 31  2  0  0  0  0
  7 14  1  0  0  0  0
  7 25  2  0  0  0  0
  8 16  2  0  0  0  0
  8 25  1  0  0  0  0
  9 19  1  0  0  0  0
  9 31  1  0  0  0  0
 10 16  1  0  0  0  0
 11 24  1  0  0  0  0
 11 31  1  0  0  0  0
 12 13  1  0  0  0  0
 12 14  2  0  0  0  0
 12 16  1  0  0  0  0
 13 15  1  0  0  0  0
 13 17  2  0  0  0  0
 15 20  2  0  0  0  0
 15 21  1  0  0  0  0
 18 22  1  0  0  0  0
 18 23  1  0  0  0  0
 18 29  2  0  0  0  0
 19 23  2  0  0  0  0
 19 26  1  0  0  0  0
 20 27  1  0  0  0  0
 21 28  2  0  0  0  0
 24 27  2  0  0  0  0
 24 28  1  0  0  0  0
 26 30  2  0  0  0  0
 29 30  1  0  0  0  0
M  END
> <Value>
6.900008766455316

> <Relation>
=

> <SourceURI>
mol:CHEMBL1998585

$$$$

Generated by Molecular Materials Informatics

 32 36  0  0  0  0  0  0  0  0999 V2000
   -4.9049   -0.6036    0.0000 O   0  0  0  0  0  0  0  0  0  0  0  0
   -1.9704    2.4472    0.0000 N   0  0  0  0  0  0  0  0  0  0  0  0
   -2.8520    1.2337    0.0000 N   0  0  0  0  0  0  0  0  0  0  0  0
   -2.4338   -1.4065    0.0000 N   0  0  0  0  0  0  0  0  0  0  0  0
    5.7273   -0.7710    0.0000 N   0  0  0  0  0  0  0  0  0  0  0  0
    3.5102   -1.7581    0.0000 N   0  0  0  0  0  0  0  0  0  0  0  0
    4.9773   -2.0701    0.0000 N   0  0  0  0  0  0  0  0  0  0  0  0
   -6.2187   -8.8512    0.0000 N   0  0  0  0  0  0  0  0  0  0  0  0
   -0.5438    0.4837    0.0000 C   0  0  0  0  0  0  0  0  0  0  0  0
   -0.5438    1.9837    0.0000 C   0  0  0  0  0  0  0  0  0  0  0  0
   -1.9704    0.0201    0.0000 C   0  0  0  0  0  0  0  0  0  0  0  0
    2.0543    0.4837    0.0000 C   0  0  0  0  0  0  0  0  0  0  0  0
    0.7553   -0.2663    0.0000 C   0  0  0  0  0  0  0  0  0  0  0  0
    3.3533   -0.2663    0.0000 C   0  0  0  0  0  0  0  0  0  0  0  0
    0.7553    2.7337    0.0000 C   0  0  0  0  0  0  0  0  0  0  0  0
    2.0543    1.9837    0.0000 C   0  0  0  0  0  0  0  0  0  0  0  0
    4.7236    0.3437    0.0000 C   0  0  0  0  0  0  0  0  0  0  0  0
   -3.9011   -1.7183    0.0000 C   0  0  0  0  0  0  0  0  0  0  0  0
   -4.3647   -3.1450    0.0000 C   0  0  0  0  0  0  0  0  0  0  0  0
    7.2191   -0.6141    0.0000 C   0  0  0  0  0  0  0  0  0  0  0  0
    8.1007   -1.8277    0.0000 C   0  0  0  0  0  0  0  0  0  0  0  0
   -3.3609   -4.2596    0.0000 C   0  0  0  0  0  0  0  0  0  0  0  0
   -5.8318   -3.4568    0.0000 C   0  0  0  0  0  0  0  0  0  0  0  0
   -5.2917   -5.9981    0.0000 C   0  0  0  0  0  0  0  0  0  0  0  0
   -3.8246   -5.6863    0.0000 C   0  0  0  0  0  0  0  0  0  0  0  0
   -6.2955   -4.8834    0.0000 C   0  0  0  0  0  0  0  0  0  0  0  0
    9.5925   -1.6708    0.0000 C   0  0  0  0  0  0  0  0  0  0  0  0
    7.4907   -3.1981    0.0000 C   0  0  0  0  0  0  0  0  0  0  0  0
   -5.7553   -7.4247    0.0000 C   0  0  0  0  0  0  0  0  0  0  0  0
   10.4742   -2.8845    0.0000 C   0  0  0  0  0  0  0  0  0  0  0  0
    8.3724   -4.4116    0.0000 C   0  0  0  0  0  0  0  0  0  0  0  0
    9.8642   -4.2548    0.0000 C   0  0  0  0  0  0  0  0  0  0  0  0
  1 18  2  0  0  0  0
  2  3  1  0  0  0  0
  2 10  1  0  0  0  0
  3 11  2  0  0  0  0
  4 11  1  0  0  0  0
  4 18  1  0  0  0  0
  5  7  1  0  0  0  0
  5 17  1  0  0  0  0
  5 20  1  0  0  0  0
  6  7  2  0  0  0  0
  6 14  1  0  0  0  0
  8 29  3  0  0  0  0
  9 10  1  0  0  0  0
  9 11  1  0  0  0  0
  9 13  2  0  0  0  0
 10 15  2  0  0  0  0
 12 13  1  0  0  0  0
 12 14  1  0  0  0  0
 12 16  2  0  0  0  0
 14 17  2  0  0  0  0
 15 16  1  0  0  0  0
 18 19  1  0  0  0  0
 19 22  2  0  0  0  0
 19 23  1  0  0  0  0
 20 21  1  0  0  0  0
 21 27  2  0  0  0  0
 21 28  1  0  0  0  0
 22 25  1  0  0  0  0
 23 26  2  0  0  0  0
 24 25  2  0  0  0  0
 24 26  1  0  0  0  0
 24 29  1  0  0  0  0
 27 30  1  0  0  0  0
 28 31  2  0  0  0  0
 30 32  2  0  0  0  0
 31 32  1  0  0  0  0
M  END
> <Value>
6.900008766455316

> <Relation>
=

> <SourceURI>
mol:CHEMBL1990162

$$$$

Generated by Molecular Materials Informatics

 29 32  0  0  0  0  0  0  0  0999 V2000
   -4.6828    1.5962    0.0000 Cl  0  0  0  0  0  0  0  0  0  0  0  0
    0.8758    9.7111    0.0000 O   0  0  0  0  0  0  0  0  0  0  0  0
   -0.2811    0.6608    0.0000 N   0  0  0  0  0  0  0  0  0  0  0  0
   -0.8213   -4.3076    0.0000 N   0  0  0  0  0  0  0  0  0  0  0  0
    1.9043   -4.5942    0.0000 N   0  0  0  0  0  0  0  0  0  0  0  0
   -2.2118    2.3991    0.0000 N   0  0  0  0  0  0  0  0  0  0  0  0
    0.2591    3.2020    0.0000 N   0  0  0  0  0  0  0  0  0  0  0  0
   -1.5951    8.9084    0.0000 N   0  0  0  0  0  0  0  0  0  0  0  0
   -1.0549   11.4497    0.0000 N   0  0  0  0  0  0  0  0  0  0  0  0
   -0.8213   -1.8807    0.0000 C   0  0  0  0  0  0  0  0  0  0  0  0
    0.6053   -2.3442    0.0000 C   0  0  0  0  0  0  0  0  0  0  0  0
   -1.2849   -0.4540    0.0000 C   0  0  0  0  0  0  0  0  0  0  0  0
    0.6053   -3.8442    0.0000 C   0  0  0  0  0  0  0  0  0  0  0  0
   -1.7029   -3.0942    0.0000 C   0  0  0  0  0  0  0  0  0  0  0  0
   -0.7448    2.0873    0.0000 C   0  0  0  0  0  0  0  0  0  0  0  0
   -2.7520   -0.1422    0.0000 C   0  0  0  0  0  0  0  0  0  0  0  0
    1.9043   -1.5942    0.0000 C   0  0  0  0  0  0  0  0  0  0  0  0
   -3.2157    1.2844    0.0000 C   0  0  0  0  0  0  0  0  0  0  0  0
   -0.2046    4.6286    0.0000 C   0  0  0  0  0  0  0  0  0  0  0  0
    3.2033   -2.3442    0.0000 C   0  0  0  0  0  0  0  0  0  0  0  0
    3.2033   -3.8442    0.0000 C   0  0  0  0  0  0  0  0  0  0  0  0
   -1.6717    4.9404    0.0000 C   0  0  0  0  0  0  0  0  0  0  0  0
    0.7993    5.7433    0.0000 C   0  0  0  0  0  0  0  0  0  0  0  0
   -1.1317    7.4817    0.0000 C   0  0  0  0  0  0  0  0  0  0  0  0
   -2.1353    6.3669    0.0000 C   0  0  0  0  0  0  0  0  0  0  0  0
    0.3356    7.1699    0.0000 C   0  0  0  0  0  0  0  0  0  0  0  0
   -0.5915   10.0231    0.0000 C   0  0  0  0  0  0  0  0  0  0  0  0
   -0.0513   12.5644    0.0000 C   0  0  0  0  0  0  0  0  0  0  0  0
   -0.5147   13.9910    0.0000 C   0  0  0  0  0  0  0  0  0  0  0  0
  1 18  1  0  0  0  0
  2 27  2  0  0  0  0
  3 12  2  0  0  0  0
  3 15  1  0  0  0  0
  4 13  1  0  0  0  0
  4 14  1  0  0  0  0
  5 13  2  0  0  0  0
  5 21  1  0  0  0  0
  6 15  2  0  0  0  0
  6 18  1  0  0  0  0
  7 15  1  0  0  0  0
  7 19  1  0  0  0  0
  8 24  1  0  0  0  0
  8 27  1  0  0  0  0
  9 27  1  0  0  0  0
  9 28  1  0  0  0  0
 10 11  1  0  0  0  0
 10 12  1  0  0  0  0
 10 14  2  0  0  0  0
 11 13  1  0  0  0  0
 11 17  2  0  0  0  0
 12 16  1  0  0  0  0
 16 18  2  0  0  0  0
 17 20  1  0  0  0  0
 19 22  1  0  0  0  0
 19 23  1  0  0  0  0
 20 21  2  0  0  0  0
 22 25  1  0  0  0  0
 23 26  1  0  0  0  0
 24 25  1  0  0  0  0
 24 26  1  0  0  0  0
 28 29  1  0  0  0  0
M  END
> <Value>
6.900008766455316

> <Relation>
=

> <SourceURI>
mol:CHEMBL1992220

$$$$

Generated by Molecular Materials Informatics

 31 35  0  0  0  0  0  0  0  0999 V2000
    2.7193    3.1644    0.0000 Cl  0  0  0  0  0  0  0  0  0  0  0  0
    2.7193    0.1645    0.0000 N   0  0  0  0  0  0  0  0  0  0  0  0
    5.3174    0.1645    0.0000 N   0  0  0  0  0  0  0  0  0  0  0  0
    7.9153    0.1645    0.0000 N   0  0  0  0  0  0  0  0  0  0  0  0
    7.9153   -5.8353    0.0000 N   0  0  0  0  0  0  0  0  0  0  0  0
    6.6162    2.4144    0.0000 N   0  0  0  0  0  0  0  0  0  0  0  0
   -2.6042    2.8779    0.0000 N   0  0  0  0  0  0  0  0  0  0  0  0
   -3.4858    1.6644    0.0000 N   0  0  0  0  0  0  0  0  0  0  0  0
    7.9153   -8.8352    0.0000 N   0  0  0  0  0  0  0  0  0  0  0  0
    4.0183    0.9145    0.0000 C   0  0  0  0  0  0  0  0  0  0  0  0
   -1.1777    0.9145    0.0000 C   0  0  0  0  0  0  0  0  0  0  0  0
    1.4204    0.9145    0.0000 C   0  0  0  0  0  0  0  0  0  0  0  0
   -1.1777    2.4144    0.0000 C   0  0  0  0  0  0  0  0  0  0  0  0
    6.6162    0.9145    0.0000 C   0  0  0  0  0  0  0  0  0  0  0  0
    4.0183    2.4144    0.0000 C   0  0  0  0  0  0  0  0  0  0  0  0
    0.1213    0.1645    0.0000 C   0  0  0  0  0  0  0  0  0  0  0  0
    7.9153   -1.3355    0.0000 C   0  0  0  0  0  0  0  0  0  0  0  0
    7.9153   -4.3354    0.0000 C   0  0  0  0  0  0  0  0  0  0  0  0
    1.4204    2.4144    0.0000 C   0  0  0  0  0  0  0  0  0  0  0  0
    0.1213    3.1644    0.0000 C   0  0  0  0  0  0  0  0  0  0  0  0
   -2.6042    0.4508    0.0000 C   0  0  0  0  0  0  0  0  0  0  0  0
    5.3174    3.1644    0.0000 C   0  0  0  0  0  0  0  0  0  0  0  0
    9.2143   -2.0854    0.0000 C   0  0  0  0  0  0  0  0  0  0  0  0
    6.6162   -2.0854    0.0000 C   0  0  0  0  0  0  0  0  0  0  0  0
    9.2143   -3.5854    0.0000 C   0  0  0  0  0  0  0  0  0  0  0  0
    6.6162   -3.5854    0.0000 C   0  0  0  0  0  0  0  0  0  0  0  0
    9.2143   -6.5853    0.0000 C   0  0  0  0  0  0  0  0  0  0  0  0
    6.6162   -6.5853    0.0000 C   0  0  0  0  0  0  0  0  0  0  0  0
    9.2143   -8.0853    0.0000 C   0  0  0  0  0  0  0  0  0  0  0  0
    6.6162   -8.0853    0.0000 C   0  0  0  0  0  0  0  0  0  0  0  0
    7.9153  -10.3352    0.0000 C   0  0  0  0  0  0  0  0  0  0  0  0
  1 15  1  0  0  0  0
  2 10  1  0  0  0  0
  2 12  1  0  0  0  0
  3 10  2  0  0  0  0
  3 14  1  0  0  0  0
  4 14  1  0  0  0  0
  4 17  1  0  0  0  0
  5 18  1  0  0  0  0
  5 27  1  0  0  0  0
  5 28  1  0  0  0  0
  6 14  2  0  0  0  0
  6 22  1  0  0  0  0
  7  8  1  0  0  0  0
  7 13  1  0  0  0  0
  8 21  2  0  0  0  0
  9 29  1  0  0  0  0
  9 30  1  0  0  0  0
  9 31  1  0  0  0  0
 10 15  1  0  0  0  0
 11 13  1  0  0  0  0
 11 16  2  0  0  0  0
 11 21  1  0  0  0  0
 12 16  1  0  0  0  0
 12 19  2  0  0  0  0
 13 20  2  0  0  0  0
 15 22  2  0  0  0  0
 17 23  2  0  0  0  0
 17 24  1  0  0  0  0
 18 25  2  0  0  0  0
 18 26  1  0  0  0  0
 19 20  1  0  0  0  0
 23 25  1  0  0  0  0
 24 26  2  0  0  0  0
 27 29  1  0  0  0  0
 28 30  1  0  0  0  0
M  END
> <Value>
6.699991797446187

> <Relation>
=

> <SourceURI>
mol:CHEMBL1979690

$$$$

Generated by Molecular Materials Informatics

 23 25  0  0  0  0  0  0  0  0999 V2000
    1.4130   -1.2358    0.0000 N   0  0  0  0  0  0  0  0  0  0  0  0
    1.4130   -2.7358    0.0000 C   0  0  0  0  0  0  0  0  0  0  0  0
    2.7078   -3.4784    0.0000 N   0  0  0  0  0  0  0  0  0  0  0  0
    2.7078   -0.4783    0.0000 C   0  0  0  0  0  0  0  0  0  0  0  0
    4.0024   -1.2358    0.0000 C   0  0  0  0  0  0  0  0  0  0  0  0
    4.0022   -2.7295    0.0000 C   0  0  0  0  0  0  0  0  0  0  0  0
    5.4228   -3.1911    0.0000 N   0  0  0  0  0  0  0  0  0  0  0  0
    6.3009   -1.9827    0.0000 C   0  0  0  0  0  0  0  0  0  0  0  0
    5.4228   -0.7745    0.0000 C   0  0  0  0  0  0  0  0  0  0  0  0
    2.7078    1.0218    0.0000 N   0  0  0  0  0  0  0  0  0  0  0  0
    4.0068    1.7718    0.0000 C   0  0  0  0  0  0  0  0  0  0  0  0
    1.4087    1.7718    0.0000 C   0  0  0  0  0  0  0  0  0  0  0  0
    5.3041    1.0152    0.0000 C   0  0  0  0  0  0  0  0  0  0  0  0
    6.5994    1.7589    0.0000 N   0  0  0  0  0  0  0  0  0  0  0  0
    6.6071    3.2597    0.0000 C   0  0  0  0  0  0  0  0  0  0  0  0
    5.3083    4.0137    0.0000 C   0  0  0  0  0  0  0  0  0  0  0  0
    4.0017    3.2670    0.0000 C   0  0  0  0  0  0  0  0  0  0  0  0
    2.7031    4.0177    0.0000 C   0  0  0  0  0  0  0  0  0  0  0  0
    7.8957    1.0040    0.0000 C   0  0  0  0  0  0  0  0  0  0  0  0
    7.8898   -0.4961    0.0000 O   0  0  0  0  0  0  0  0  0  0  0  0
    9.1975    1.7491    0.0000 C   0  0  0  0  0  0  0  0  0  0  0  0
   10.4938    0.9941    0.0000 C   0  0  0  0  0  0  0  0  0  0  0  0
   11.7847    0.2490    0.0000 N   0  0  0  0  0  0  0  0  0  0  0  0
 10 11  1  0  0  0  0
 10 12  1  0  0  0  0
 11 13  1  0  0  0  0
  1  2  1  0  0  0  0
  1  4  2  0  0  0  0
  2  3  2  0  0  0  0
  3  6  1  0  0  0  0
  6  7  1  0  0  0  0
 11 17  1  0  0  0  0
 13 14  1  0  0  0  0
 14 15  1  0  0  0  0
 15 16  1  0  0  0  0
 16 17  1  0  0  0  0
  7  8  1  0  0  0  0
 17 18  1  0  0  0  0
  8  9  2  0  0  0  0
 14 19  1  0  0  0  0
  9  5  1  0  0  0  0
 19 20  2  0  0  0  0
  5  4  1  0  0  0  0
 19 21  1  0  0  0  0
  4 10  1  0  0  0  0
 21 22  1  0  0  0  0
  5  6  2  0  0  0  0
 22 23  3  0  0  0  0
M  END
> <Value>
5.300000202445418

> <Relation>
<

> <SourceURI>
mol:CHEMBL234085

$$$$

Generated by Molecular Materials Informatics

 32 35  0  0  0  0  0  0  0  0999 V2000
   -1.8823    3.6166    0.0000 F   0  0  0  0  0  0  0  0  0  0  0  0
   -6.3823    1.0186    0.0000 F   0  0  0  0  0  0  0  0  0  0  0  0
    3.2249    4.0186    0.0000 O   0  0  0  0  0  0  0  0  0  0  0  0
    2.6600  -10.3602    0.0000 O   0  0  0  0  0  0  0  0  0  0  0  0
    1.9259    0.2686    0.0000 N   0  0  0  0  0  0  0  0  0  0  0  0
    0.4993    2.2320    0.0000 N   0  0  0  0  0  0  0  0  0  0  0  0
    1.0395   -2.7363    0.0000 N   0  0  0  0  0  0  0  0  0  0  0  0
    4.5240    1.7686    0.0000 N   0  0  0  0  0  0  0  0  0  0  0  0
   -0.8912   -4.4747    0.0000 N   0  0  0  0  0  0  0  0  0  0  0  0
    1.5797   -5.2776    0.0000 N   0  0  0  0  0  0  0  0  0  0  0  0
    0.4993   -0.1951    0.0000 C   0  0  0  0  0  0  0  0  0  0  0  0
   -0.3823    1.0186    0.0000 C   0  0  0  0  0  0  0  0  0  0  0  0
    1.9259    1.7686    0.0000 C   0  0  0  0  0  0  0  0  0  0  0  0
    0.0358   -1.6216    0.0000 C   0  0  0  0  0  0  0  0  0  0  0  0
   -1.8823    1.0186    0.0000 C   0  0  0  0  0  0  0  0  0  0  0  0
    3.2249    2.5186    0.0000 C   0  0  0  0  0  0  0  0  0  0  0  0
    3.2249   -0.4814    0.0000 C   0  0  0  0  0  0  0  0  0  0  0  0
   -2.6323    2.3175    0.0000 C   0  0  0  0  0  0  0  0  0  0  0  0
   -2.6323   -0.2805    0.0000 C   0  0  0  0  0  0  0  0  0  0  0  0
   -1.4314   -1.9334    0.0000 C   0  0  0  0  0  0  0  0  0  0  0  0
    4.5240    0.2686    0.0000 C   0  0  0  0  0  0  0  0  0  0  0  0
    0.5759   -4.1629    0.0000 C   0  0  0  0  0  0  0  0  0  0  0  0
   -4.1323    2.3175    0.0000 C   0  0  0  0  0  0  0  0  0  0  0  0
   -4.1323   -0.2805    0.0000 C   0  0  0  0  0  0  0  0  0  0  0  0
   -4.8823    1.0186    0.0000 C   0  0  0  0  0  0  0  0  0  0  0  0
   -1.8951   -3.3602    0.0000 C   0  0  0  0  0  0  0  0  0  0  0  0
    1.9259    4.7686    0.0000 C   0  0  0  0  0  0  0  0  0  0  0  0
    1.1160   -6.7042    0.0000 C   0  0  0  0  0  0  0  0  0  0  0  0
    2.1199   -7.8189    0.0000 C   0  0  0  0  0  0  0  0  0  0  0  0
    3.1235   -8.9336    0.0000 C   0  0  0  0  0  0  0  0  0  0  0  0
    3.2346   -6.8153    0.0000 C   0  0  0  0  0  0  0  0  0  0  0  0
    1.0051   -8.8227    0.0000 C   0  0  0  0  0  0  0  0  0  0  0  0
  1 18  1  0  0  0  0
  2 25  1  0  0  0  0
  3 16  1  0  0  0  0
  3 27  1  0  0  0  0
  4 30  1  0  0  0  0
  5 11  1  0  0  0  0
  5 13  1  0  0  0  0
  5 17  1  0  0  0  0
  6 12  1  0  0  0  0
  6 13  2  0  0  0  0
  7 14  1  0  0  0  0
  7 22  2  0  0  0  0
  8 16  2  0  0  0  0
  8 21  1  0  0  0  0
  9 22  1  0  0  0  0
  9 26  2  0  0  0  0
 10 22  1  0  0  0  0
 10 28  1  0  0  0  0
 11 12  2  0  0  0  0
 11 14  1  0  0  0  0
 12 15  1  0  0  0  0
 13 16  1  0  0  0  0
 14 20  2  0  0  0  0
 15 18  1  0  0  0  0
 15 19  2  0  0  0  0
 17 21  2  0  0  0  0
 18 23  2  0  0  0  0
 19 24  1  0  0  0  0
 20 26  1  0  0  0  0
 23 25  1  0  0  0  0
 24 25  2  0  0  0  0
 28 29  1  0  0  0  0
 29 30  1  0  0  0  0
 29 31  1  0  0  0  0
 29 32  1  0  0  0  0
M  END
> <Value>
5.899998417198648

> <Relation>
<

> <SourceURI>
mol:CHEMBL1995832

$$$$

Generated by Molecular Materials Informatics

 27 30  0  0  0  0  0  0  0  0999 V2000
    7.6919    0.3490    0.0000 O   0  0  0  0  0  0  0  0  0  0  0  0
    0.7720    5.3766    0.0000 O   0  0  0  0  0  0  0  0  0  0  0  0
   -0.0367   -9.6265    0.0000 O   0  0  0  0  0  0  0  0  0  0  0  0
   -0.4414   -1.5050    0.0000 N   0  0  0  0  0  0  0  0  0  0  0  0
    0.0220   -2.9318    0.0000 N   0  0  0  0  0  0  0  0  0  0  0  0
    2.4037   -4.1452    0.0000 N   0  0  0  0  0  0  0  0  0  0  0  0
    1.9855   -1.5050    0.0000 C   0  0  0  0  0  0  0  0  0  0  0  0
    0.7720   -0.6234    0.0000 C   0  0  0  0  0  0  0  0  0  0  0  0
    1.5220   -2.9318    0.0000 C   0  0  0  0  0  0  0  0  0  0  0  0
    3.4122   -1.0416    0.0000 C   0  0  0  0  0  0  0  0  0  0  0  0
    0.7720    0.8766    0.0000 C   0  0  0  0  0  0  0  0  0  0  0  0
    3.7240    0.4257    0.0000 C   0  0  0  0  0  0  0  0  0  0  0  0
    4.5269   -2.0452    0.0000 C   0  0  0  0  0  0  0  0  0  0  0  0
    1.7937   -5.5156    0.0000 C   0  0  0  0  0  0  0  0  0  0  0  0
   -0.5271    1.6266    0.0000 C   0  0  0  0  0  0  0  0  0  0  0  0
    2.0711    1.6266    0.0000 C   0  0  0  0  0  0  0  0  0  0  0  0
    5.1506    0.8891    0.0000 C   0  0  0  0  0  0  0  0  0  0  0  0
    5.9535   -1.5818    0.0000 C   0  0  0  0  0  0  0  0  0  0  0  0
    6.2653   -0.1145    0.0000 C   0  0  0  0  0  0  0  0  0  0  0  0
   -0.5271    3.1266    0.0000 C   0  0  0  0  0  0  0  0  0  0  0  0
    2.0711    3.1266    0.0000 C   0  0  0  0  0  0  0  0  0  0  0  0
    0.7720    3.8766    0.0000 C   0  0  0  0  0  0  0  0  0  0  0  0
    2.6753   -6.7290    0.0000 C   0  0  0  0  0  0  0  0  0  0  0  0
    0.3019   -5.6723    0.0000 C   0  0  0  0  0  0  0  0  0  0  0  0
    0.5735   -8.2561    0.0000 C   0  0  0  0  0  0  0  0  0  0  0  0
    2.0651   -8.0994    0.0000 C   0  0  0  0  0  0  0  0  0  0  0  0
   -0.3083   -7.0427    0.0000 C   0  0  0  0  0  0  0  0  0  0  0  0
  1 19  1  0  0  0  0
  2 22  1  0  0  0  0
  3 25  1  0  0  0  0
  4  5  1  0  0  0  0
  4  8  2  0  0  0  0
  5  9  1  0  0  0  0
  6  9  1  0  0  0  0
  6 14  1  0  0  0  0
  7  8  1  0  0  0  0
  7  9  2  0  0  0  0
  7 10  1  0  0  0  0
  8 11  1  0  0  0  0
 10 12  2  0  0  0  0
 10 13  1  0  0  0  0
 11 15  2  0  0  0  0
 11 16  1  0  0  0  0
 12 17  1  0  0  0  0
 13 18  2  0  0  0  0
 14 23  2  0  0  0  0
 14 24  1  0  0  0  0
 15 20  1  0  0  0  0
 16 21  2  0  0  0  0
 17 19  2  0  0  0  0
 18 19  1  0  0  0  0
 20 22  2  0  0  0  0
 21 22  1  0  0  0  0
 23 26  1  0  0  0  0
 24 27  2  0  0  0  0
 25 26  2  0  0  0  0
 25 27  1  0  0  0  0
M  END
> <Value>
6.499996931948306

> <Relation>
=

> <SourceURI>
mol:CHEMBL1969042

$$$$

Generated by Molecular Materials Informatics

 24 26  0  0  0  0  0  0  0  0999 V2000
   -3.9183   -2.2892    0.0000 Br  0  0  0  0  0  0  0  0  0  0  0  0
   -6.9183    2.9069    0.0000 O   0  0  0  0  0  0  0  0  0  0  0  0
   -8.4183    0.3088    0.0000 O   0  0  0  0  0  0  0  0  0  0  0  0
    0.7133   -2.2038    0.0000 N   0  0  0  0  0  0  0  0  0  0  0  0
    0.7133    0.2233    0.0000 N   0  0  0  0  0  0  0  0  0  0  0  0
   -3.1683   -3.5883    0.0000 N   0  0  0  0  0  0  0  0  0  0  0  0
   -0.1683   -0.9902    0.0000 C   0  0  0  0  0  0  0  0  0  0  0  0
    2.1398   -1.7402    0.0000 C   0  0  0  0  0  0  0  0  0  0  0  0
    2.1398   -0.2402    0.0000 C   0  0  0  0  0  0  0  0  0  0  0  0
   -1.6683   -0.9902    0.0000 C   0  0  0  0  0  0  0  0  0  0  0  0
   -3.9183    0.3088    0.0000 C   0  0  0  0  0  0  0  0  0  0  0  0
   -2.4183    0.3088    0.0000 C   0  0  0  0  0  0  0  0  0  0  0  0
   -4.6683   -0.9902    0.0000 C   0  0  0  0  0  0  0  0  0  0  0  0
   -6.1683    1.6078    0.0000 C   0  0  0  0  0  0  0  0  0  0  0  0
   -4.6683    1.6078    0.0000 C   0  0  0  0  0  0  0  0  0  0  0  0
    3.4389   -2.4902    0.0000 C   0  0  0  0  0  0  0  0  0  0  0  0
   -6.9183    0.3088    0.0000 C   0  0  0  0  0  0  0  0  0  0  0  0
    3.4389    0.5098    0.0000 C   0  0  0  0  0  0  0  0  0  0  0  0
   -6.1683   -0.9902    0.0000 C   0  0  0  0  0  0  0  0  0  0  0  0
    4.7380   -1.7402    0.0000 C   0  0  0  0  0  0  0  0  0  0  0  0
   -2.4183   -2.2892    0.0000 C   0  0  0  0  0  0  0  0  0  0  0  0
    4.7380   -0.2402    0.0000 C   0  0  0  0  0  0  0  0  0  0  0  0
    6.0369   -2.4902    0.0000 C   0  0  0  0  0  0  0  0  0  0  0  0
   -8.4183    2.9069    0.0000 C   0  0  0  0  0  0  0  0  0  0  0  0
  1 13  1  0  0  0  0
  2 14  1  0  0  0  0
  2 24  1  0  0  0  0
  3 17  1  0  0  0  0
  4  7  2  0  0  0  0
  4  8  1  0  0  0  0
  5  7  1  0  0  0  0
  5  9  1  0  0  0  0
  6 21  3  0  0  0  0
  7 10  1  0  0  0  0
  8  9  1  0  0  0  0
  8 16  2  0  0  0  0
  9 18  2  0  0  0  0
 10 12  2  0  0  0  0
 10 21  1  0  0  0  0
 12 11  1  0  0  0  0
 11 13  2  0  0  0  0
 11 15  1  0  0  0  0
 13 19  1  0  0  0  0
 14 15  2  0  0  0  0
 14 17  1  0  0  0  0
 16 20  1  0  0  0  0
 17 19  2  0  0  0  0
 18 22  1  0  0  0  0
 20 22  2  0  0  0  0
 20 23  1  0  0  0  0
M  END
> <Value>
8.100179497572904

> <Relation>
=

> <SourceURI>
mol:CHEMBL2000345

$$$$

Generated by Molecular Materials Informatics

 30 34  0  0  0  0  0  0  0  0999 V2000
   -4.9049   -1.2455    0.0000 O   0  0  0  0  0  0  0  0  0  0  0  0
   -1.9703    1.8052    0.0000 N   0  0  0  0  0  0  0  0  0  0  0  0
   -2.8520    0.5917    0.0000 N   0  0  0  0  0  0  0  0  0  0  0  0
   -2.4338   -2.0484    0.0000 N   0  0  0  0  0  0  0  0  0  0  0  0
    5.7272   -1.4130    0.0000 N   0  0  0  0  0  0  0  0  0  0  0  0
    3.5102   -2.4001    0.0000 N   0  0  0  0  0  0  0  0  0  0  0  0
    4.9772   -2.7121    0.0000 N   0  0  0  0  0  0  0  0  0  0  0  0
   -0.5438   -0.1583    0.0000 C   0  0  0  0  0  0  0  0  0  0  0  0
   -0.5438    1.3417    0.0000 C   0  0  0  0  0  0  0  0  0  0  0  0
   -1.9703   -0.6219    0.0000 C   0  0  0  0  0  0  0  0  0  0  0  0
    2.0544   -0.1583    0.0000 C   0  0  0  0  0  0  0  0  0  0  0  0
    0.7553   -0.9083    0.0000 C   0  0  0  0  0  0  0  0  0  0  0  0
    3.3532   -0.9083    0.0000 C   0  0  0  0  0  0  0  0  0  0  0  0
    0.7553    2.0917    0.0000 C   0  0  0  0  0  0  0  0  0  0  0  0
    2.0544    1.3417    0.0000 C   0  0  0  0  0  0  0  0  0  0  0  0
    4.7236   -0.2983    0.0000 C   0  0  0  0  0  0  0  0  0  0  0  0
   -3.9010   -2.3602    0.0000 C   0  0  0  0  0  0  0  0  0  0  0  0
   -4.3647   -3.7870    0.0000 C   0  0  0  0  0  0  0  0  0  0  0  0
    7.2190   -1.2561    0.0000 C   0  0  0  0  0  0  0  0  0  0  0  0
    8.1007   -2.4697    0.0000 C   0  0  0  0  0  0  0  0  0  0  0  0
   -3.3609   -4.9015    0.0000 C   0  0  0  0  0  0  0  0  0  0  0  0
   -5.8318   -4.0988    0.0000 C   0  0  0  0  0  0  0  0  0  0  0  0
    9.5925   -2.3128    0.0000 C   0  0  0  0  0  0  0  0  0  0  0  0
    7.4907   -3.8400    0.0000 C   0  0  0  0  0  0  0  0  0  0  0  0
   -3.8245   -6.3282    0.0000 C   0  0  0  0  0  0  0  0  0  0  0  0
   -6.2954   -5.5253    0.0000 C   0  0  0  0  0  0  0  0  0  0  0  0
   -5.2916   -6.6400    0.0000 C   0  0  0  0  0  0  0  0  0  0  0  0
   10.4741   -3.5264    0.0000 C   0  0  0  0  0  0  0  0  0  0  0  0
    8.3723   -5.0535    0.0000 C   0  0  0  0  0  0  0  0  0  0  0  0
    9.8641   -4.8968    0.0000 C   0  0  0  0  0  0  0  0  0  0  0  0
  1 17  2  0  0  0  0
  2  3  1  0  0  0  0
  2  9  1  0  0  0  0
  3 10  2  0  0  0  0
  4 10  1  0  0  0  0
  4 17  1  0  0  0  0
  5  7  1  0  0  0  0
  5 16  1  0  0  0  0
  5 19  1  0  0  0  0
  6  7  2  0  0  0  0
  6 13  1  0  0  0  0
  8  9  1  0  0  0  0
  8 10  1  0  0  0  0
  8 12  2  0  0  0  0
  9 14  2  0  0  0  0
 11 12  1  0  0  0  0
 11 13  1  0  0  0  0
 11 15  2  0  0  0  0
 13 16  2  0  0  0  0
 14 15  1  0  0  0  0
 17 18  1  0  0  0  0
 18 21  2  0  0  0  0
 18 22  1  0  0  0  0
 19 20  1  0  0  0  0
 20 23  2  0  0  0  0
 20 24  1  0  0  0  0
 21 25  1  0  0  0  0
 22 26  2  0  0  0  0
 23 28  1  0  0  0  0
 24 29  2  0  0  0  0
 25 27  2  0  0  0  0
 26 27  1  0  0  0  0
 28 30  2  0  0  0  0
 29 30  1  0  0  0  0
M  END
> <Value>
8.100179497572904

> <Relation>
=

> <SourceURI>
mol:CHEMBL1999931

$$$$

Generated by Molecular Materials Informatics

 30 34  0  0  0  0  0  0  0  0999 V2000
   -3.0416   -5.9322    0.0000 O   0  0  0  0  0  0  0  0  0  0  0  0
   -3.0056    5.5912    0.0000 O   0  0  0  0  0  0  0  0  0  0  0  0
    0.5457   11.4767    0.0000 O   0  0  0  0  0  0  0  0  0  0  0  0
   -1.1514   -2.5421    0.0000 N   0  0  0  0  0  0  0  0  0  0  0  0
    1.5742   -2.8286    0.0000 N   0  0  0  0  0  0  0  0  0  0  0  0
    2.8732   -0.5786    0.0000 N   0  0  0  0  0  0  0  0  0  0  0  0
    1.5742    1.6714    0.0000 N   0  0  0  0  0  0  0  0  0  0  0  0
    0.2752   -0.5786    0.0000 C   0  0  0  0  0  0  0  0  0  0  0  0
    0.2752   -2.0786    0.0000 C   0  0  0  0  0  0  0  0  0  0  0  0
   -1.1514   -0.1151    0.0000 C   0  0  0  0  0  0  0  0  0  0  0  0
   -2.0330   -1.3286    0.0000 C   0  0  0  0  0  0  0  0  0  0  0  0
    1.5742    0.1714    0.0000 C   0  0  0  0  0  0  0  0  0  0  0  0
   -1.6150    1.3116    0.0000 C   0  0  0  0  0  0  0  0  0  0  0  0
   -1.6150   -3.9688    0.0000 C   0  0  0  0  0  0  0  0  0  0  0  0
    2.8732   -2.0786    0.0000 C   0  0  0  0  0  0  0  0  0  0  0  0
   -3.0821    1.6234    0.0000 C   0  0  0  0  0  0  0  0  0  0  0  0
   -0.6112    2.4263    0.0000 C   0  0  0  0  0  0  0  0  0  0  0  0
   -3.0416   -4.4322    0.0000 C   0  0  0  0  0  0  0  0  0  0  0  0
   -0.7332   -5.1822    0.0000 C   0  0  0  0  0  0  0  0  0  0  0  0
   -2.5419    4.1647    0.0000 C   0  0  0  0  0  0  0  0  0  0  0  0
   -3.5458    3.0500    0.0000 C   0  0  0  0  0  0  0  0  0  0  0  0
   -1.0748    3.8529    0.0000 C   0  0  0  0  0  0  0  0  0  0  0  0
   -1.6150   -6.3957    0.0000 C   0  0  0  0  0  0  0  0  0  0  0  0
   -2.0018    6.7060    0.0000 C   0  0  0  0  0  0  0  0  0  0  0  0
   -2.4654    8.1325    0.0000 C   0  0  0  0  0  0  0  0  0  0  0  0
   -0.5347    6.3941    0.0000 C   0  0  0  0  0  0  0  0  0  0  0  0
    0.0055    8.9354    0.0000 C   0  0  0  0  0  0  0  0  0  0  0  0
   -1.4618    9.2472    0.0000 C   0  0  0  0  0  0  0  0  0  0  0  0
    0.4692    7.5089    0.0000 C   0  0  0  0  0  0  0  0  0  0  0  0
    1.0093   10.0502    0.0000 C   0  0  0  0  0  0  0  0  0  0  0  0
  1 18  1  0  0  0  0
  1 23  1  0  0  0  0
  2 20  1  0  0  0  0
  2 24  1  0  0  0  0
  3 30  1  0  0  0  0
  4  9  1  0  0  0  0
  4 11  1  0  0  0  0
  4 14  1  0  0  0  0
  5  9  1  0  0  0  0
  5 15  2  0  0  0  0
  6 12  2  0  0  0  0
  6 15  1  0  0  0  0
  7 12  1  0  0  0  0
  8  9  2  0  0  0  0
  8 10  1  0  0  0  0
  8 12  1  0  0  0  0
 10 11  2  0  0  0  0
 10 13  1  0  0  0  0
 13 16  2  0  0  0  0
 13 17  1  0  0  0  0
 14 18  1  0  0  0  0
 14 19  1  0  0  0  0
 16 21  1  0  0  0  0
 17 22  2  0  0  0  0
 19 23  1  0  0  0  0
 20 21  2  0  0  0  0
 20 22  1  0  0  0  0
 24 25  2  0  0  0  0
 24 26  1  0  0  0  0
 25 28  1  0  0  0  0
 26 29  2  0  0  0  0
 27 28  2  0  0  0  0
 27 29  1  0  0  0  0
 27 30  1  0  0  0  0
M  END
> <Value>
5.300000202445418

> <Relation>
<

> <SourceURI>
mol:CHEMBL1976376

$$$$

Generated by Molecular Materials Informatics

 28 32  0  0  0  0  0  0  0  0999 V2000
   -3.6111   -2.8567    0.0000 S   0  0  0  0  0  0  0  0  0  0  0  0
    1.7126   -4.6431    0.0000 F   0  0  0  0  0  0  0  0  0  0  0  0
    4.3106   -0.1431    0.0000 F   0  0  0  0  0  0  0  0  0  0  0  0
   -0.8855    1.3568    0.0000 O   0  0  0  0  0  0  0  0  0  0  0  0
   -4.0745    0.9968    0.0000 O   0  0  0  0  0  0  0  0  0  0  0  0
   -0.8855   -3.1431    0.0000 N   0  0  0  0  0  0  0  0  0  0  0  0
   -4.4927   -1.6431    0.0000 N   0  0  0  0  0  0  0  0  0  0  0  0
    4.3106   -3.1431    0.0000 N   0  0  0  0  0  0  0  0  0  0  0  0
    0.4136   -2.3931    0.0000 C   0  0  0  0  0  0  0  0  0  0  0  0
   -2.1846   -2.3931    0.0000 C   0  0  0  0  0  0  0  0  0  0  0  0
    0.4136   -0.8931    0.0000 C   0  0  0  0  0  0  0  0  0  0  0  0
   -2.1846   -0.8931    0.0000 C   0  0  0  0  0  0  0  0  0  0  0  0
   -0.8855   -0.1431    0.0000 C   0  0  0  0  0  0  0  0  0  0  0  0
   -0.8855   -4.6431    0.0000 C   0  0  0  0  0  0  0  0  0  0  0  0
    1.7126   -3.1431    0.0000 C   0  0  0  0  0  0  0  0  0  0  0  0
   -3.6111   -0.4297    0.0000 C   0  0  0  0  0  0  0  0  0  0  0  0
    3.0115   -2.3931    0.0000 C   0  0  0  0  0  0  0  0  0  0  0  0
    1.7126   -0.1431    0.0000 C   0  0  0  0  0  0  0  0  0  0  0  0
    3.0115   -0.8931    0.0000 C   0  0  0  0  0  0  0  0  0  0  0  0
   -0.1355   -5.9421    0.0000 C   0  0  0  0  0  0  0  0  0  0  0  0
   -1.6355   -5.9421    0.0000 C   0  0  0  0  0  0  0  0  0  0  0  0
    5.6097   -2.3931    0.0000 C   0  0  0  0  0  0  0  0  0  0  0  0
    6.9086   -3.1431    0.0000 C   0  0  0  0  0  0  0  0  0  0  0  0
    8.2076   -2.3931    0.0000 C   0  0  0  0  0  0  0  0  0  0  0  0
    6.9086   -4.6431    0.0000 C   0  0  0  0  0  0  0  0  0  0  0  0
    9.5067   -3.1431    0.0000 C   0  0  0  0  0  0  0  0  0  0  0  0
    8.2076   -5.3931    0.0000 C   0  0  0  0  0  0  0  0  0  0  0  0
    9.5067   -4.6431    0.0000 C   0  0  0  0  0  0  0  0  0  0  0  0
  1  7  1  0  0  0  0
  1 10  1  0  0  0  0
  2 15  1  0  0  0  0
  3 19  1  0  0  0  0
  4 13  2  0  0  0  0
  5 16  2  0  0  0  0
  6  9  1  0  0  0  0
  6 10  1  0  0  0  0
  6 14  1  0  0  0  0
  7 16  1  0  0  0  0
  8 17  1  0  0  0  0
  8 22  1  0  0  0  0
  9 11  2  0  0  0  0
  9 15  1  0  0  0  0
 10 12  2  0  0  0  0
 11 13  1  0  0  0  0
 11 18  1  0  0  0  0
 12 13  1  0  0  0  0
 12 16  1  0  0  0  0
 14 20  1  0  0  0  0
 14 21  1  0  0  0  0
 15 17  2  0  0  0  0
 17 19  1  0  0  0  0
 18 19  2  0  0  0  0
 20 21  1  0  0  0  0
 22 23  1  0  0  0  0
 23 24  2  0  0  0  0
 23 25  1  0  0  0  0
 24 26  1  0  0  0  0
 25 27  2  0  0  0  0
 26 28  2  0  0  0  0
 27 28  1  0  0  0  0
M  END
> <Value>
6.299997602857746

> <Relation>
=

> <SourceURI>
mol:CHEMBL1991640

$$$$

Generated by Molecular Materials Informatics

 21 22  0  0  0  0  0  0  0  0999 V2000
    7.0473   -1.3500    0.0000 Br  0  0  0  0  0  0  0  0  0  0  0  0
    1.8511   -1.3500    0.0000 Br  0  0  0  0  0  0  0  0  0  0  0  0
    4.4493    0.1500    0.0000 O   0  0  0  0  0  0  0  0  0  0  0  0
    0.5520   -8.1000    0.0000 O   0  0  0  0  0  0  0  0  0  0  0  0
    3.1502   -6.6000    0.0000 N   0  0  0  0  0  0  0  0  0  0  0  0
    3.1502   -8.1000    0.0000 N   0  0  0  0  0  0  0  0  0  0  0  0
    1.8511  -10.3500    0.0000 N   0  0  0  0  0  0  0  0  0  0  0  0
    4.4493   -1.3500    0.0000 C   0  0  0  0  0  0  0  0  0  0  0  0
    4.4493   -4.3500    0.0000 C   0  0  0  0  0  0  0  0  0  0  0  0
    5.7482   -2.1000    0.0000 C   0  0  0  0  0  0  0  0  0  0  0  0
    3.1502   -2.1000    0.0000 C   0  0  0  0  0  0  0  0  0  0  0  0
    5.7482   -3.6000    0.0000 C   0  0  0  0  0  0  0  0  0  0  0  0
    3.1502   -3.6000    0.0000 C   0  0  0  0  0  0  0  0  0  0  0  0
    4.4493   -5.8500    0.0000 C   0  0  0  0  0  0  0  0  0  0  0  0
    1.8511   -8.8500    0.0000 C   0  0  0  0  0  0  0  0  0  0  0  0
    0.5520  -11.1000    0.0000 C   0  0  0  0  0  0  0  0  0  0  0  0
    0.5520  -12.6000    0.0000 C   0  0  0  0  0  0  0  0  0  0  0  0
   -0.7469  -10.3500    0.0000 C   0  0  0  0  0  0  0  0  0  0  0  0
   -0.7469  -13.3500    0.0000 C   0  0  0  0  0  0  0  0  0  0  0  0
   -2.0460  -11.1000    0.0000 C   0  0  0  0  0  0  0  0  0  0  0  0
   -2.0460  -12.6000    0.0000 C   0  0  0  0  0  0  0  0  0  0  0  0
  1 10  1  0  0  0  0
  2 11  1  0  0  0  0
  3  8  1  0  0  0  0
  4 15  2  0  0  0  0
  5  6  1  0  0  0  0
  5 14  2  0  0  0  0
  6 15  1  0  0  0  0
  7 15  1  0  0  0  0
  7 16  1  0  0  0  0
  8 10  2  0  0  0  0
  8 11  1  0  0  0  0
  9 12  2  0  0  0  0
  9 13  1  0  0  0  0
  9 14  1  0  0  0  0
 10 12  1  0  0  0  0
 11 13  2  0  0  0  0
 16 17  2  0  0  0  0
 16 18  1  0  0  0  0
 17 19  1  0  0  0  0
 18 20  2  0  0  0  0
 19 21  2  0  0  0  0
 20 21  1  0  0  0  0
M  END
> <Value>
7.0

> <Relation>
=

> <SourceURI>
mol:CHEMBL1983575

$$$$

Generated by Molecular Materials Informatics

 26 28  0  0  0  0  0  0  0  0999 V2000
    5.3260    3.3263    0.0000 F   0  0  0  0  0  0  0  0  0  0  0  0
    3.2770    3.8753    0.0000 F   0  0  0  0  0  0  0  0  0  0  0  0
    4.7769    1.2772    0.0000 F   0  0  0  0  0  0  0  0  0  0  0  0
    1.4289   -1.9236    0.0000 O   0  0  0  0  0  0  0  0  0  0  0  0
   -1.1691    2.5763    0.0000 N   0  0  0  0  0  0  0  0  0  0  0  0
   -1.1691   -1.9236    0.0000 N   0  0  0  0  0  0  0  0  0  0  0  0
    0.1300   -4.1735    0.0000 N   0  0  0  0  0  0  0  0  0  0  0  0
    1.4289   -6.4234    0.0000 N   0  0  0  0  0  0  0  0  0  0  0  0
    2.7279  -10.1733    0.0000 N   0  0  0  0  0  0  0  0  0  0  0  0
    0.1300    0.3263    0.0000 C   0  0  0  0  0  0  0  0  0  0  0  0
    0.1300    1.8263    0.0000 C   0  0  0  0  0  0  0  0  0  0  0  0
    2.7279    1.8263    0.0000 C   0  0  0  0  0  0  0  0  0  0  0  0
   -1.1691   -0.4236    0.0000 C   0  0  0  0  0  0  0  0  0  0  0  0
    1.4289    2.5763    0.0000 C   0  0  0  0  0  0  0  0  0  0  0  0
    4.0270    2.5763    0.0000 C   0  0  0  0  0  0  0  0  0  0  0  0
    1.4289   -0.4236    0.0000 C   0  0  0  0  0  0  0  0  0  0  0  0
    2.7279    0.3263    0.0000 C   0  0  0  0  0  0  0  0  0  0  0  0
   -2.4681    0.3263    0.0000 C   0  0  0  0  0  0  0  0  0  0  0  0
   -2.4681    1.8263    0.0000 C   0  0  0  0  0  0  0  0  0  0  0  0
    0.1300   -2.6736    0.0000 C   0  0  0  0  0  0  0  0  0  0  0  0
    1.4289   -4.9235    0.0000 C   0  0  0  0  0  0  0  0  0  0  0  0
    2.7279   -7.1734    0.0000 C   0  0  0  0  0  0  0  0  0  0  0  0
    2.7279   -4.1735    0.0000 C   0  0  0  0  0  0  0  0  0  0  0  0
    4.0270   -6.4234    0.0000 C   0  0  0  0  0  0  0  0  0  0  0  0
    4.0270   -4.9235    0.0000 C   0  0  0  0  0  0  0  0  0  0  0  0
    2.7279   -8.6734    0.0000 C   0  0  0  0  0  0  0  0  0  0  0  0
  1 15  1  0  0  0  0
  2 15  1  0  0  0  0
  3 15  1  0  0  0  0
  4 20  2  0  0  0  0
  5 11  1  0  0  0  0
  5 19  2  0  0  0  0
  6 13  1  0  0  0  0
  6 20  1  0  0  0  0
  7 20  1  0  0  0  0
  7 21  1  0  0  0  0
  8 21  1  0  0  0  0
  8 22  2  0  0  0  0
  9 26  3  0  0  0  0
 10 11  1  0  0  0  0
 10 13  1  0  0  0  0
 10 16  2  0  0  0  0
 11 14  2  0  0  0  0
 12 14  1  0  0  0  0
 12 15  1  0  0  0  0
 12 17  2  0  0  0  0
 13 18  2  0  0  0  0
 16 17  1  0  0  0  0
 18 19  1  0  0  0  0
 21 23  2  0  0  0  0
 22 24  1  0  0  0  0
 22 26  1  0  0  0  0
 23 25  1  0  0  0  0
 24 25  2  0  0  0  0
M  END
> <Value>
5.300000202445418

> <Relation>
<

> <SourceURI>
mol:CHEMBL1968868

$$$$

Generated by Molecular Materials Informatics

 29 34  0  0  0  0  0  0  0  0999 V2000
    9.3189   -5.4528    0.0000 N   0  0  0  0  0  0  0  0  0  0  0  0
    8.5669   -3.1453    0.0000 C   0  0  0  0  0  0  0  0  0  0  0  0
   10.0669   -3.1438    0.0000 C   0  0  0  0  0  0  0  0  0  0  0  0
    7.8170   -1.8462    0.0000 C   0  0  0  0  0  0  0  0  0  0  0  0
    6.3170   -1.8462    0.0000 C   0  0  0  0  0  0  0  0  0  0  0  0
    7.8170   -4.4441    0.0000 C   0  0  0  0  0  0  0  0  0  0  0  0
    5.5670   -3.1453    0.0000 C   0  0  0  0  0  0  0  0  0  0  0  0
    6.3170   -4.4441    0.0000 C   0  0  0  0  0  0  0  0  0  0  0  0
   12.3168   -1.8448    0.0000 C   0  0  0  0  0  0  0  0  0  0  0  0
   13.0668   -3.1436    0.0000 C   0  0  0  0  0  0  0  0  0  0  0  0
   10.8169   -1.8448    0.0000 C   0  0  0  0  0  0  0  0  0  0  0  0
   12.3168   -4.4429    0.0000 C   0  0  0  0  0  0  0  0  0  0  0  0
   10.8169   -4.4429    0.0000 C   0  0  0  0  0  0  0  0  0  0  0  0
   13.8188   -5.4514    0.0000 N   0  0  0  0  0  0  0  0  0  0  0  0
   14.5669   -3.1425    0.0000 C   0  0  0  0  0  0  0  0  0  0  0  0
   15.3169   -1.8433    0.0000 C   0  0  0  0  0  0  0  0  0  0  0  0
   16.8169   -1.8433    0.0000 C   0  0  0  0  0  0  0  0  0  0  0  0
   17.5668   -3.1425    0.0000 C   0  0  0  0  0  0  0  0  0  0  0  0
   15.3169   -4.4414    0.0000 C   0  0  0  0  0  0  0  0  0  0  0  0
   16.8169   -4.4414    0.0000 C   0  0  0  0  0  0  0  0  0  0  0  0
   12.7806   -0.4183    0.0000 C   0  0  0  0  0  0  0  0  0  0  0  0
   11.5670    0.4635    0.0000 N   0  0  0  0  0  0  0  0  0  0  0  0
   10.3534   -0.4181    0.0000 C   0  0  0  0  0  0  0  0  0  0  0  0
    8.7466   -0.3984    0.0000 O   0  0  0  0  0  0  0  0  0  0  0  0
    9.3180   -6.7839    0.0000 C   0  0  0  0  0  0  0  0  0  0  0  0
   13.8322   -6.8695    0.0000 C   0  0  0  0  0  0  0  0  0  0  0  0
   15.3464   -7.4982    0.0000 C   0  0  0  0  0  0  0  0  0  0  0  0
   16.6465   -6.8124    0.0000 C   0  0  0  0  0  0  0  0  0  0  0  0
   17.9465   -6.1268    0.0000 N   0  0  0  0  0  0  0  0  0  0  0  0
  6  1  1  0  0  0  0
  6  2  1  0  0  0  0
  1 13  1  0  0  0  0
  2  3  1  0  0  0  0
 13  3  2  0  0  0  0
  4  2  2  0  0  0  0
  4  5  1  0  0  0  0
  5  7  2  0  0  0  0
  6  8  2  0  0  0  0
  7  8  1  0  0  0  0
  9 10  1  0  0  0  0
  9 11  2  0  0  0  0
 10 12  2  0  0  0  0
 11  3  1  0  0  0  0
 12 13  1  0  0  0  0
 12 14  1  0  0  0  0
 14 19  1  0  0  0  0
 10 15  1  0  0  0  0
 19 15  2  0  0  0  0
 16 17  2  0  0  0  0
 16 15  1  0  0  0  0
 17 18  1  0  0  0  0
 18 20  2  0  0  0  0
 19 20  1  0  0  0  0
 21 22  1  0  0  0  0
 21  9  1  0  0  0  0
 22 23  1  0  0  0  0
 23 11  1  0  0  0  0
 24 23  2  0  0  0  0
 25  1  1  0  0  0  0
 26 14  1  0  0  0  0
 27 26  1  0  0  0  0
 28 27  1  0  0  0  0
 29 28  3  0  0  0  0
M  END
> <Value>
5.899998417198648

> <Relation>
<

> <SourceURI>
mol:CHEMBL302449

$$$$

Generated by Molecular Materials Informatics

 23 25  0  0  0  0  0  0  0  0999 V2000
   -1.4114    0.6542    0.0000 O   0  0  0  0  0  0  0  0  0  0  0  0
   -8.0042   -5.1169    0.0000 O   0  0  0  0  0  0  0  0  0  0  0  0
   -6.0735   -6.8554    0.0000 O   0  0  0  0  0  0  0  0  0  0  0  0
    0.9701    1.8677    0.0000 N   0  0  0  0  0  0  0  0  0  0  0  0
   -2.0752   -1.2941    0.0000 N   0  0  0  0  0  0  0  0  0  0  0  0
    0.9701   -0.5594    0.0000 C   0  0  0  0  0  0  0  0  0  0  0  0
    2.3967   -0.0958    0.0000 C   0  0  0  0  0  0  0  0  0  0  0  0
   -0.9605   -2.2977    0.0000 C   0  0  0  0  0  0  0  0  0  0  0  0
    2.3967    1.4042    0.0000 C   0  0  0  0  0  0  0  0  0  0  0  0
    0.0885    0.6542    0.0000 C   0  0  0  0  0  0  0  0  0  0  0  0
   -1.5707   -3.6680    0.0000 C   0  0  0  0  0  0  0  0  0  0  0  0
    0.5067   -1.9859    0.0000 C   0  0  0  0  0  0  0  0  0  0  0  0
   -3.0625   -3.5113    0.0000 C   0  0  0  0  0  0  0  0  0  0  0  0
   -3.3743   -2.0441    0.0000 C   0  0  0  0  0  0  0  0  0  0  0  0
    3.6957   -0.8457    0.0000 C   0  0  0  0  0  0  0  0  0  0  0  0
    3.6957    2.1542    0.0000 C   0  0  0  0  0  0  0  0  0  0  0  0
   -4.0661   -4.6260    0.0000 C   0  0  0  0  0  0  0  0  0  0  0  0
    4.9948   -0.0958    0.0000 C   0  0  0  0  0  0  0  0  0  0  0  0
    4.9948    1.4042    0.0000 C   0  0  0  0  0  0  0  0  0  0  0  0
   -0.8207   -4.9671    0.0000 C   0  0  0  0  0  0  0  0  0  0  0  0
   -4.7446   -1.4339    0.0000 C   0  0  0  0  0  0  0  0  0  0  0  0
   -5.5333   -4.3140    0.0000 C   0  0  0  0  0  0  0  0  0  0  0  0
   -6.5369   -5.4287    0.0000 C   0  0  0  0  0  0  0  0  0  0  0  0
  1 10  2  0  0  0  0
  2 23  2  0  0  0  0
  3 23  1  0  0  0  0
  4  9  1  0  0  0  0
  4 10  1  0  0  0  0
  5  8  1  0  0  0  0
  5 14  1  0  0  0  0
  6  7  1  0  0  0  0
  6 10  1  0  0  0  0
  6 12  2  0  0  0  0
  7  9  1  0  0  0  0
  7 15  2  0  0  0  0
  8 11  2  0  0  0  0
 12  8  1  0  0  0  0
  9 16  2  0  0  0  0
 11 13  1  0  0  0  0
 11 20  1  0  0  0  0
 13 14  2  0  0  0  0
 13 17  1  0  0  0  0
 14 21  1  0  0  0  0
 15 18  1  0  0  0  0
 16 19  1  0  0  0  0
 17 22  1  0  0  0  0
 18 19  2  0  0  0  0
 22 23  1  0  0  0  0
M  END
> <Value>
5.899998417198648

> <Relation>
=

> <SourceURI>
mol:CHEMBL2007064

$$$$

Generated by Molecular Materials Informatics

 35 39  0  0  0  0  0  0  0  0999 V2000
   -2.5793    1.5229    0.0000 O   0  0  0  0  0  0  0  0  0  0  0  0
   -4.0793    4.1209    0.0000 O   0  0  0  0  0  0  0  0  0  0  0  0
    6.3400    0.9845    0.0000 O   0  0  0  0  0  0  0  0  0  0  0  0
   -0.3293    2.8218    0.0000 N   0  0  0  0  0  0  0  0  0  0  0  0
    3.4056    4.0354    0.0000 N   0  0  0  0  0  0  0  0  0  0  0  0
    4.2873    2.8218    0.0000 N   0  0  0  0  0  0  0  0  0  0  0  0
    3.8691    0.1818    0.0000 N   0  0  0  0  0  0  0  0  0  0  0  0
    7.1905   -5.8364    0.0000 N   0  0  0  0  0  0  0  0  0  0  0  0
    8.1175   -8.6896    0.0000 N   0  0  0  0  0  0  0  0  0  0  0  0
    1.9791    2.0718    0.0000 C   0  0  0  0  0  0  0  0  0  0  0  0
    1.9791    3.5718    0.0000 C   0  0  0  0  0  0  0  0  0  0  0  0
    3.4056    1.6084    0.0000 C   0  0  0  0  0  0  0  0  0  0  0  0
    0.5524    1.6084    0.0000 C   0  0  0  0  0  0  0  0  0  0  0  0
    0.5524    4.0354    0.0000 C   0  0  0  0  0  0  0  0  0  0  0  0
   -1.8293    2.8218    0.0000 C   0  0  0  0  0  0  0  0  0  0  0  0
   -2.5793    4.1209    0.0000 C   0  0  0  0  0  0  0  0  0  0  0  0
    5.3364   -0.1300    0.0000 C   0  0  0  0  0  0  0  0  0  0  0  0
   -1.8293    5.4200    0.0000 C   0  0  0  0  0  0  0  0  0  0  0  0
    5.7998   -1.5567    0.0000 C   0  0  0  0  0  0  0  0  0  0  0  0
    6.7269   -4.4098    0.0000 C   0  0  0  0  0  0  0  0  0  0  0  0
    7.2671   -1.8686    0.0000 C   0  0  0  0  0  0  0  0  0  0  0  0
    4.7962   -2.6715    0.0000 C   0  0  0  0  0  0  0  0  0  0  0  0
    7.7305   -3.2951    0.0000 C   0  0  0  0  0  0  0  0  0  0  0  0
    5.2596   -4.0980    0.0000 C   0  0  0  0  0  0  0  0  0  0  0  0
   -2.5793    6.7191    0.0000 C   0  0  0  0  0  0  0  0  0  0  0  0
   -0.3293    5.4200    0.0000 C   0  0  0  0  0  0  0  0  0  0  0  0
    8.6576   -6.1484    0.0000 C   0  0  0  0  0  0  0  0  0  0  0  0
    6.1867   -6.9511    0.0000 C   0  0  0  0  0  0  0  0  0  0  0  0
   -1.8293    8.0180    0.0000 C   0  0  0  0  0  0  0  0  0  0  0  0
    0.4207    6.7191    0.0000 C   0  0  0  0  0  0  0  0  0  0  0  0
   -4.8293    5.4200    0.0000 C   0  0  0  0  0  0  0  0  0  0  0  0
   -0.3293    8.0180    0.0000 C   0  0  0  0  0  0  0  0  0  0  0  0
    9.1213   -7.5749    0.0000 C   0  0  0  0  0  0  0  0  0  0  0  0
    6.6504   -8.3778    0.0000 C   0  0  0  0  0  0  0  0  0  0  0  0
    8.5811  -10.1162    0.0000 C   0  0  0  0  0  0  0  0  0  0  0  0
  1 15  2  0  0  0  0
  2 16  1  0  0  0  0
  2 31  1  0  0  0  0
  3 17  2  0  0  0  0
  4 13  1  0  0  0  0
  4 14  1  0  0  0  0
  4 15  1  0  0  0  0
  5  6  1  0  0  0  0
  5 11  1  0  0  0  0
  6 12  2  0  0  0  0
  7 12  1  0  0  0  0
  7 17  1  0  0  0  0
  8 20  1  0  0  0  0
  8 27  1  0  0  0  0
  8 28  1  0  0  0  0
  9 33  1  0  0  0  0
  9 34  1  0  0  0  0
  9 35  1  0  0  0  0
 10 11  2  0  0  0  0
 10 12  1  0  0  0  0
 10 13  1  0  0  0  0
 11 14  1  0  0  0  0
 15 16  1  0  0  0  0
 16 18  1  0  0  0  0
 17 19  1  0  0  0  0
 18 25  2  0  0  0  0
 18 26  1  0  0  0  0
 19 21  2  0  0  0  0
 19 22  1  0  0  0  0
 20 23  2  0  0  0  0
 20 24  1  0  0  0  0
 21 23  1  0  0  0  0
 22 24  2  0  0  0  0
 25 29  1  0  0  0  0
 26 30  2  0  0  0  0
 27 33  1  0  0  0  0
 28 34  1  0  0  0  0
 29 32  2  0  0  0  0
 30 32  1  0  0  0  0
M  END
> <Value>
6.0999990348465305

> <Relation>
=

> <SourceURI>
mol:CHEMBL1981047

$$$$

Generated by Molecular Materials Informatics

 29 32  0  0  0  0  0  0  0  0999 V2000
   11.6501    2.4708    0.0000 Cl  0  0  0  0  0  0  0  0  0  0  0  0
   14.2481    0.9708    0.0000 Cl  0  0  0  0  0  0  0  0  0  0  0  0
    5.1549   -1.2791    0.0000 O   0  0  0  0  0  0  0  0  0  0  0  0
   -4.0657    0.6843    0.0000 N   0  0  0  0  0  0  0  0  0  0  0  0
   -4.9473   -0.5292    0.0000 N   0  0  0  0  0  0  0  0  0  0  0  0
    2.5570   -4.2791    0.0000 N   0  0  0  0  0  0  0  0  0  0  0  0
    7.7531    0.2208    0.0000 N   0  0  0  0  0  0  0  0  0  0  0  0
   -2.6391   -1.2791    0.0000 C   0  0  0  0  0  0  0  0  0  0  0  0
   -2.6391    0.2208    0.0000 C   0  0  0  0  0  0  0  0  0  0  0  0
   -0.0410   -1.2791    0.0000 C   0  0  0  0  0  0  0  0  0  0  0  0
   -1.3401   -2.0291    0.0000 C   0  0  0  0  0  0  0  0  0  0  0  0
   -4.0657   -1.7428    0.0000 C   0  0  0  0  0  0  0  0  0  0  0  0
    1.2579   -2.0291    0.0000 C   0  0  0  0  0  0  0  0  0  0  0  0
   -1.3401    0.9708    0.0000 C   0  0  0  0  0  0  0  0  0  0  0  0
   -0.0410    0.2208    0.0000 C   0  0  0  0  0  0  0  0  0  0  0  0
    2.5570   -1.2791    0.0000 C   0  0  0  0  0  0  0  0  0  0  0  0
    3.8560   -2.0291    0.0000 C   0  0  0  0  0  0  0  0  0  0  0  0
    1.2579   -3.5291    0.0000 C   0  0  0  0  0  0  0  0  0  0  0  0
    3.8560   -3.5291    0.0000 C   0  0  0  0  0  0  0  0  0  0  0  0
   -4.5291   -3.1693    0.0000 C   0  0  0  0  0  0  0  0  0  0  0  0
   10.3510   -1.2791    0.0000 C   0  0  0  0  0  0  0  0  0  0  0  0
   11.6501    0.9708    0.0000 C   0  0  0  0  0  0  0  0  0  0  0  0
   12.9492    0.2208    0.0000 C   0  0  0  0  0  0  0  0  0  0  0  0
   10.3510    0.2208    0.0000 C   0  0  0  0  0  0  0  0  0  0  0  0
    7.7531   -1.2791    0.0000 C   0  0  0  0  0  0  0  0  0  0  0  0
    9.0522   -2.0291    0.0000 C   0  0  0  0  0  0  0  0  0  0  0  0
    6.4540   -2.0291    0.0000 C   0  0  0  0  0  0  0  0  0  0  0  0
   11.6501   -2.0291    0.0000 C   0  0  0  0  0  0  0  0  0  0  0  0
   12.9492   -1.2791    0.0000 C   0  0  0  0  0  0  0  0  0  0  0  0
  1 22  1  0  0  0  0
  2 23  1  0  0  0  0
  3 17  1  0  0  0  0
  3 27  1  0  0  0  0
  4  5  1  0  0  0  0
  4  9  1  0  0  0  0
  5 12  2  0  0  0  0
  6 18  1  0  0  0  0
  6 19  2  0  0  0  0
  7 25  1  0  0  0  0
  8  9  1  0  0  0  0
  8 11  2  0  0  0  0
  8 12  1  0  0  0  0
  9 14  2  0  0  0  0
 10 11  1  0  0  0  0
 10 13  1  0  0  0  0
 10 15  2  0  0  0  0
 12 20  1  0  0  0  0
 13 16  1  0  0  0  0
 13 18  2  0  0  0  0
 14 15  1  0  0  0  0
 16 17  2  0  0  0  0
 17 19  1  0  0  0  0
 21 24  1  0  0  0  0
 21 26  1  0  0  0  0
 21 28  2  0  0  0  0
 22 23  1  0  0  0  0
 22 24  2  0  0  0  0
 23 29  2  0  0  0  0
 25 26  1  0  0  0  0
 25 27  1  0  0  0  0
 28 29  1  0  0  0  0
M  END
> <Value>
6.900008766455316

> <Relation>
=

> <SourceURI>
mol:CHEMBL1991063

$$$$

Generated by Molecular Materials Informatics

 26 28  0  0  0  0  0  0  0  0999 V2000
    2.1434   -3.4125    0.0000 O   0  0  0  0  0  0  0  0  0  0  0  0
   -5.6508   -1.9125    0.0000 O   0  0  0  0  0  0  0  0  0  0  0  0
    0.8443   -1.1625    0.0000 N   0  0  0  0  0  0  0  0  0  0  0  0
    9.9376    2.5875    0.0000 N   0  0  0  0  0  0  0  0  0  0  0  0
   -1.7537   -4.1625    0.0000 N   0  0  0  0  0  0  0  0  0  0  0  0
    3.4425   -1.1625    0.0000 C   0  0  0  0  0  0  0  0  0  0  0  0
   -0.4546   -1.9125    0.0000 C   0  0  0  0  0  0  0  0  0  0  0  0
   -1.7537   -1.1625    0.0000 C   0  0  0  0  0  0  0  0  0  0  0  0
    2.1434   -1.9125    0.0000 C   0  0  0  0  0  0  0  0  0  0  0  0
    6.0405    0.3375    0.0000 C   0  0  0  0  0  0  0  0  0  0  0  0
    7.3396    1.0875    0.0000 C   0  0  0  0  0  0  0  0  0  0  0  0
    3.4425    0.3375    0.0000 C   0  0  0  0  0  0  0  0  0  0  0  0
    4.7416   -1.9125    0.0000 C   0  0  0  0  0  0  0  0  0  0  0  0
    4.7416    1.0875    0.0000 C   0  0  0  0  0  0  0  0  0  0  0  0
    6.0405   -1.1625    0.0000 C   0  0  0  0  0  0  0  0  0  0  0  0
   -3.0528   -1.9125    0.0000 C   0  0  0  0  0  0  0  0  0  0  0  0
   -4.3517   -1.1625    0.0000 C   0  0  0  0  0  0  0  0  0  0  0  0
   -1.7537    0.3375    0.0000 C   0  0  0  0  0  0  0  0  0  0  0  0
   -0.4546   -3.4125    0.0000 C   0  0  0  0  0  0  0  0  0  0  0  0
    8.6387    0.3375    0.0000 C   0  0  0  0  0  0  0  0  0  0  0  0
    7.3396    2.5875    0.0000 C   0  0  0  0  0  0  0  0  0  0  0  0
   -4.3517    0.3375    0.0000 C   0  0  0  0  0  0  0  0  0  0  0  0
   -3.0528    1.0875    0.0000 C   0  0  0  0  0  0  0  0  0  0  0  0
    9.9376    1.0875    0.0000 C   0  0  0  0  0  0  0  0  0  0  0  0
    8.6387    3.3375    0.0000 C   0  0  0  0  0  0  0  0  0  0  0  0
   -5.6508   -3.4125    0.0000 C   0  0  0  0  0  0  0  0  0  0  0  0
  1  9  2  0  0  0  0
  2 17  1  0  0  0  0
  2 26  1  0  0  0  0
  3  7  1  0  0  0  0
  3  9  1  0  0  0  0
  4 24  2  0  0  0  0
  4 25  1  0  0  0  0
  5 19  1  0  0  0  0
  6  9  1  0  0  0  0
  6 12  2  0  0  0  0
  6 13  1  0  0  0  0
  7  8  1  0  0  0  0
  7 19  1  0  0  0  0
  8 16  2  0  0  0  0
  8 18  1  0  0  0  0
 10 11  1  0  0  0  0
 10 14  2  0  0  0  0
 10 15  1  0  0  0  0
 11 20  2  0  0  0  0
 11 21  1  0  0  0  0
 12 14  1  0  0  0  0
 13 15  2  0  0  0  0
 16 17  1  0  0  0  0
 17 22  2  0  0  0  0
 18 23  2  0  0  0  0
 20 24  1  0  0  0  0
 21 25  2  0  0  0  0
 22 23  1  0  0  0  0
M  END
> <Value>
5.899998417198648

> <Relation>
<

> <SourceURI>
mol:CHEMBL1976240

$$$$

Generated by Molecular Materials Informatics

 28 31  0  0  0  0  0  0  0  0999 V2000
   -4.5005    2.5995    0.0000 Cl  0  0  0  0  0  0  0  0  0  0  0  0
   -3.8838    9.1088    0.0000 S   0  0  0  0  0  0  0  0  0  0  0  0
   -4.3473   10.5353    0.0000 O   0  0  0  0  0  0  0  0  0  0  0  0
   -5.3104    8.6453    0.0000 O   0  0  0  0  0  0  0  0  0  0  0  0
   -0.0989    1.6640    0.0000 N   0  0  0  0  0  0  0  0  0  0  0  0
   -0.6391   -3.3044    0.0000 N   0  0  0  0  0  0  0  0  0  0  0  0
   -2.0296    3.4024    0.0000 N   0  0  0  0  0  0  0  0  0  0  0  0
    2.0866   -3.5909    0.0000 N   0  0  0  0  0  0  0  0  0  0  0  0
    0.4413    4.2053    0.0000 N   0  0  0  0  0  0  0  0  0  0  0  0
   -3.4204    7.6822    0.0000 N   0  0  0  0  0  0  0  0  0  0  0  0
   -0.6391   -0.8774    0.0000 C   0  0  0  0  0  0  0  0  0  0  0  0
    0.7875   -1.3409    0.0000 C   0  0  0  0  0  0  0  0  0  0  0  0
   -1.1027    0.5493    0.0000 C   0  0  0  0  0  0  0  0  0  0  0  0
    0.7875   -2.8409    0.0000 C   0  0  0  0  0  0  0  0  0  0  0  0
   -1.5207   -2.0909    0.0000 C   0  0  0  0  0  0  0  0  0  0  0  0
   -0.5625    3.0906    0.0000 C   0  0  0  0  0  0  0  0  0  0  0  0
   -2.5698    0.8611    0.0000 C   0  0  0  0  0  0  0  0  0  0  0  0
    2.0866   -0.5909    0.0000 C   0  0  0  0  0  0  0  0  0  0  0  0
   -3.0335    2.2877    0.0000 C   0  0  0  0  0  0  0  0  0  0  0  0
   -0.0224    5.6318    0.0000 C   0  0  0  0  0  0  0  0  0  0  0  0
    3.3855   -1.3409    0.0000 C   0  0  0  0  0  0  0  0  0  0  0  0
   -1.9531    7.3702    0.0000 C   0  0  0  0  0  0  0  0  0  0  0  0
    3.3855   -2.8409    0.0000 C   0  0  0  0  0  0  0  0  0  0  0  0
   -1.4895    5.9437    0.0000 C   0  0  0  0  0  0  0  0  0  0  0  0
    0.9815    6.7466    0.0000 C   0  0  0  0  0  0  0  0  0  0  0  0
   -0.9494    8.4849    0.0000 C   0  0  0  0  0  0  0  0  0  0  0  0
    0.5178    8.1731    0.0000 C   0  0  0  0  0  0  0  0  0  0  0  0
   -2.4573    9.5722    0.0000 C   0  0  0  0  0  0  0  0  0  0  0  0
  1 19  1  0  0  0  0
  2  3  2  0  0  0  0
  2  4  2  0  0  0  0
  2 10  1  0  0  0  0
  2 28  1  0  0  0  0
  5 13  2  0  0  0  0
  5 16  1  0  0  0  0
  6 14  1  0  0  0  0
  6 15  1  0  0  0  0
  7 16  2  0  0  0  0
  7 19  1  0  0  0  0
  8 14  2  0  0  0  0
  8 23  1  0  0  0  0
  9 16  1  0  0  0  0
  9 20  1  0  0  0  0
 10 22  1  0  0  0  0
 11 12  1  0  0  0  0
 11 13  1  0  0  0  0
 11 15  2  0  0  0  0
 12 14  1  0  0  0  0
 12 18  2  0  0  0  0
 13 17  1  0  0  0  0
 17 19  2  0  0  0  0
 18 21  1  0  0  0  0
 20 24  1  0  0  0  0
 20 25  1  0  0  0  0
 21 23  2  0  0  0  0
 22 24  1  0  0  0  0
 22 26  1  0  0  0  0
 25 27  1  0  0  0  0
 26 27  1  0  0  0  0
M  END
> <Value>
6.599997654072044

> <Relation>
=

> <SourceURI>
mol:CHEMBL1987948

$$$$

Generated by Molecular Materials Informatics

 16 18  0  0  0  0  0  0  0  0999 V2000
   -4.4128   -0.0937    0.0000 O   0  0  0  0  0  0  0  0  0  0  0  0
   -2.0311   -1.3072    0.0000 N   0  0  0  0  0  0  0  0  0  0  0  0
    0.6945   -1.5938    0.0000 N   0  0  0  0  0  0  0  0  0  0  0  0
   -0.6046    0.6562    0.0000 C   0  0  0  0  0  0  0  0  0  0  0  0
   -0.6046   -0.8437    0.0000 C   0  0  0  0  0  0  0  0  0  0  0  0
    1.9934    0.6562    0.0000 C   0  0  0  0  0  0  0  0  0  0  0  0
    0.6945    1.4062    0.0000 C   0  0  0  0  0  0  0  0  0  0  0  0
   -2.0311    1.1197    0.0000 C   0  0  0  0  0  0  0  0  0  0  0  0
   -2.9128   -0.0937    0.0000 C   0  0  0  0  0  0  0  0  0  0  0  0
    3.2925    1.4062    0.0000 C   0  0  0  0  0  0  0  0  0  0  0  0
    1.9934   -0.8437    0.0000 C   0  0  0  0  0  0  0  0  0  0  0  0
    3.2925    2.9062    0.0000 C   0  0  0  0  0  0  0  0  0  0  0  0
    4.5916    0.6562    0.0000 C   0  0  0  0  0  0  0  0  0  0  0  0
    4.5916    3.6562    0.0000 C   0  0  0  0  0  0  0  0  0  0  0  0
    5.8907    1.4062    0.0000 C   0  0  0  0  0  0  0  0  0  0  0  0
    5.8907    2.9062    0.0000 C   0  0  0  0  0  0  0  0  0  0  0  0
  1  9  2  0  0  0  0
  2  5  1  0  0  0  0
  2  9  1  0  0  0  0
  3  5  2  0  0  0  0
  3 11  1  0  0  0  0
  4  5  1  0  0  0  0
  4  7  2  0  0  0  0
  4  8  1  0  0  0  0
  6  7  1  0  0  0  0
  6 10  1  0  0  0  0
  6 11  2  0  0  0  0
  8  9  1  0  0  0  0
 10 12  2  0  0  0  0
 10 13  1  0  0  0  0
 12 14  1  0  0  0  0
 13 15  2  0  0  0  0
 14 16  2  0  0  0  0
 15 16  1  0  0  0  0
M  END
> <Value>
4.399999967876858

> <Relation>
=

> <SourceURI>
mol:CHEMBL1983630

$$$$

Generated by Molecular Materials Informatics

 19 22  0  0  0  0  0  0  0  0999 V2000
   -2.6603    2.3484    0.0000 S   0  0  0  0  0  0  0  0  0  0  0  0
    1.8070    5.2584    0.0000 O   0  0  0  0  0  0  0  0  0  0  0  0
    1.8070    2.6604    0.0000 N   0  0  0  0  0  0  0  0  0  0  0  0
    2.0606    0.2466    0.0000 N   0  0  0  0  0  0  0  0  0  0  0  0
    3.2742    2.3484    0.0000 N   0  0  0  0  0  0  0  0  0  0  0  0
   -0.4430    3.9593    0.0000 N   0  0  0  0  0  0  0  0  0  0  0  0
    7.3280   -1.3934    0.0000 N   0  0  0  0  0  0  0  0  0  0  0  0
    1.0570    1.3613    0.0000 C   0  0  0  0  0  0  0  0  0  0  0  0
   -0.4430    1.3613    0.0000 C   0  0  0  0  0  0  0  0  0  0  0  0
   -1.1930    2.6604    0.0000 C   0  0  0  0  0  0  0  0  0  0  0  0
    3.4310    0.8566    0.0000 C   0  0  0  0  0  0  0  0  0  0  0  0
    1.0570    3.9593    0.0000 C   0  0  0  0  0  0  0  0  0  0  0  0
   -1.4467    0.2466    0.0000 C   0  0  0  0  0  0  0  0  0  0  0  0
    4.7300    0.1066    0.0000 C   0  0  0  0  0  0  0  0  0  0  0  0
   -2.8170    0.8566    0.0000 C   0  0  0  0  0  0  0  0  0  0  0  0
    4.7300   -1.3934    0.0000 C   0  0  0  0  0  0  0  0  0  0  0  0
    6.0290    0.8566    0.0000 C   0  0  0  0  0  0  0  0  0  0  0  0
    6.0290   -2.1434    0.0000 C   0  0  0  0  0  0  0  0  0  0  0  0
    7.3280    0.1066    0.0000 C   0  0  0  0  0  0  0  0  0  0  0  0
  1 10  1  0  0  0  0
  1 15  1  0  0  0  0
  2 12  2  0  0  0  0
  3  5  1  0  0  0  0
  3  8  1  0  0  0  0
  3 12  1  0  0  0  0
  4  8  2  0  0  0  0
  4 11  1  0  0  0  0
  5 11  2  0  0  0  0
  6 10  1  0  0  0  0
  6 12  1  0  0  0  0
  7 18  2  0  0  0  0
  7 19  1  0  0  0  0
  8  9  1  0  0  0  0
  9 10  2  0  0  0  0
  9 13  1  0  0  0  0
 11 14  1  0  0  0  0
 13 15  2  0  0  0  0
 14 16  2  0  0  0  0
 14 17  1  0  0  0  0
 16 18  1  0  0  0  0
 17 19  2  0  0  0  0
M  END
> <Value>
6.799998134593398

> <Relation>
=

> <SourceURI>
mol:CHEMBL1968151

$$$$

Generated by Molecular Materials Informatics

 30 33  0  0  0  0  0  0  0  0999 V2000
   -3.9705  -11.0854    0.0000 F   0  0  0  0  0  0  0  0  0  0  0  0
   -0.2009    2.8781    0.0000 O   0  0  0  0  0  0  0  0  0  0  0  0
    2.5247    4.6646    0.0000 O   0  0  0  0  0  0  0  0  0  0  0  0
   -0.0734   -5.8354    0.0000 O   0  0  0  0  0  0  0  0  0  0  0  0
   -1.0825    1.6646    0.0000 N   0  0  0  0  0  0  0  0  0  0  0  0
   -0.6643   -0.9756    0.0000 N   0  0  0  0  0  0  0  0  0  0  0  0
    2.5247   -5.8354    0.0000 N   0  0  0  0  0  0  0  0  0  0  0  0
    1.2256   -8.0854    0.0000 N   0  0  0  0  0  0  0  0  0  0  0  0
    1.2256    0.9146    0.0000 C   0  0  0  0  0  0  0  0  0  0  0  0
    1.2256    2.4146    0.0000 C   0  0  0  0  0  0  0  0  0  0  0  0
    2.5247    0.1646    0.0000 C   0  0  0  0  0  0  0  0  0  0  0  0
   -0.2009    0.4510    0.0000 C   0  0  0  0  0  0  0  0  0  0  0  0
    2.5247    3.1646    0.0000 C   0  0  0  0  0  0  0  0  0  0  0  0
    2.5247   -1.3354    0.0000 C   0  0  0  0  0  0  0  0  0  0  0  0
    3.8238    0.9146    0.0000 C   0  0  0  0  0  0  0  0  0  0  0  0
    3.8238    2.4146    0.0000 C   0  0  0  0  0  0  0  0  0  0  0  0
    3.8238   -2.0854    0.0000 C   0  0  0  0  0  0  0  0  0  0  0  0
    1.2256   -2.0854    0.0000 C   0  0  0  0  0  0  0  0  0  0  0  0
    2.5247   -4.3354    0.0000 C   0  0  0  0  0  0  0  0  0  0  0  0
    3.8238   -3.5854    0.0000 C   0  0  0  0  0  0  0  0  0  0  0  0
    1.2256   -3.5854    0.0000 C   0  0  0  0  0  0  0  0  0  0  0  0
   -0.0734   -8.8354    0.0000 C   0  0  0  0  0  0  0  0  0  0  0  0
    1.2256   -6.5854    0.0000 C   0  0  0  0  0  0  0  0  0  0  0  0
   -1.3723  -11.0854    0.0000 C   0  0  0  0  0  0  0  0  0  0  0  0
    1.2256    5.4146    0.0000 C   0  0  0  0  0  0  0  0  0  0  0  0
   -0.0734  -10.3354    0.0000 C   0  0  0  0  0  0  0  0  0  0  0  0
   -2.6714  -10.3354    0.0000 C   0  0  0  0  0  0  0  0  0  0  0  0
   -1.3723   -8.0854    0.0000 C   0  0  0  0  0  0  0  0  0  0  0  0
   -2.6714   -8.8354    0.0000 C   0  0  0  0  0  0  0  0  0  0  0  0
   -1.3723  -12.5854    0.0000 C   0  0  0  0  0  0  0  0  0  0  0  0
  1 27  1  0  0  0  0
  2  5  1  0  0  0  0
  2 10  1  0  0  0  0
  3 13  1  0  0  0  0
  3 25  1  0  0  0  0
  4 23  2  0  0  0  0
  5 12  2  0  0  0  0
  6 12  1  0  0  0  0
  7 19  1  0  0  0  0
  7 23  1  0  0  0  0
  8 22  1  0  0  0  0
  8 23  1  0  0  0  0
  9 10  2  0  0  0  0
  9 11  1  0  0  0  0
  9 12  1  0  0  0  0
 10 13  1  0  0  0  0
 11 14  1  0  0  0  0
 11 15  2  0  0  0  0
 13 16  2  0  0  0  0
 14 17  2  0  0  0  0
 14 18  1  0  0  0  0
 15 16  1  0  0  0  0
 17 20  1  0  0  0  0
 18 21  2  0  0  0  0
 19 20  2  0  0  0  0
 19 21  1  0  0  0  0
 22 26  1  0  0  0  0
 22 28  2  0  0  0  0
 24 26  2  0  0  0  0
 24 27  1  0  0  0  0
 24 30  1  0  0  0  0
 27 29  2  0  0  0  0
 28 29  1  0  0  0  0
M  END
> <Value>
5.899998417198648

> <Relation>
<

> <SourceURI>
mol:CHEMBL1979093

$$$$

Generated by Molecular Materials Informatics

 26 29  0  0  0  0  0  0  0  0999 V2000
   -0.2581   -0.8678    0.0000 S   0  0  0  0  0  0  0  0  0  0  0  0
    2.8735    1.6447    0.0000 O   0  0  0  0  0  0  0  0  0  0  0  0
    8.8735   -3.5514    0.0000 O   0  0  0  0  0  0  0  0  0  0  0  0
   -3.1112   -0.8678    0.0000 N   0  0  0  0  0  0  0  0  0  0  0  0
   -3.9928    0.3457    0.0000 N   0  0  0  0  0  0  0  0  0  0  0  0
    2.8735   -0.9534    0.0000 N   0  0  0  0  0  0  0  0  0  0  0  0
   -1.6846    1.0957    0.0000 C   0  0  0  0  0  0  0  0  0  0  0  0
   -1.6846   -0.4043    0.0000 C   0  0  0  0  0  0  0  0  0  0  0  0
   -3.1112    1.5591    0.0000 C   0  0  0  0  0  0  0  0  0  0  0  0
    0.6235    0.3457    0.0000 C   0  0  0  0  0  0  0  0  0  0  0  0
   -0.2581    1.5591    0.0000 C   0  0  0  0  0  0  0  0  0  0  0  0
   -3.5748    2.9858    0.0000 C   0  0  0  0  0  0  0  0  0  0  0  0
    2.1235    0.3457    0.0000 C   0  0  0  0  0  0  0  0  0  0  0  0
   -5.0419    3.2977    0.0000 C   0  0  0  0  0  0  0  0  0  0  0  0
   -2.5710    4.1006    0.0000 C   0  0  0  0  0  0  0  0  0  0  0  0
    4.3735   -0.9534    0.0000 C   0  0  0  0  0  0  0  0  0  0  0  0
    5.1235   -2.2523    0.0000 C   0  0  0  0  0  0  0  0  0  0  0  0
   -5.5055    4.7242    0.0000 C   0  0  0  0  0  0  0  0  0  0  0  0
   -3.0346    5.5271    0.0000 C   0  0  0  0  0  0  0  0  0  0  0  0
   -4.5017    5.8389    0.0000 C   0  0  0  0  0  0  0  0  0  0  0  0
    6.6235   -2.2523    0.0000 C   0  0  0  0  0  0  0  0  0  0  0  0
    7.3735   -3.5514    0.0000 C   0  0  0  0  0  0  0  0  0  0  0  0
    4.3735   -3.5514    0.0000 C   0  0  0  0  0  0  0  0  0  0  0  0
    6.6235   -4.8505    0.0000 C   0  0  0  0  0  0  0  0  0  0  0  0
    5.1235   -4.8505    0.0000 C   0  0  0  0  0  0  0  0  0  0  0  0
    9.6235   -2.2523    0.0000 C   0  0  0  0  0  0  0  0  0  0  0  0
  1  8  1  0  0  0  0
  1 10  1  0  0  0  0
  2 13  2  0  0  0  0
  3 22  1  0  0  0  0
  3 26  1  0  0  0  0
  4  5  1  0  0  0  0
  4  8  1  0  0  0  0
  5  9  2  0  0  0  0
  6 13  1  0  0  0  0
  6 16  1  0  0  0  0
  7  8  2  0  0  0  0
  7  9  1  0  0  0  0
  7 11  1  0  0  0  0
  9 12  1  0  0  0  0
 10 11  2  0  0  0  0
 10 13  1  0  0  0  0
 12 14  2  0  0  0  0
 12 15  1  0  0  0  0
 14 18  1  0  0  0  0
 15 19  2  0  0  0  0
 16 17  1  0  0  0  0
 17 21  2  0  0  0  0
 17 23  1  0  0  0  0
 18 20  2  0  0  0  0
 19 20  1  0  0  0  0
 21 22  1  0  0  0  0
 22 24  2  0  0  0  0
 23 25  2  0  0  0  0
 24 25  1  0  0  0  0
M  END
> <Value>
6.499996931948306

> <Relation>
=

> <SourceURI>
mol:CHEMBL1987009

$$$$

Generated by Molecular Materials Informatics

 24 26  0  0  0  0  0  0  0  0999 V2000
    6.2028    2.6513    0.0000 F   0  0  0  0  0  0  0  0  0  0  0  0
    4.1538    3.2004    0.0000 F   0  0  0  0  0  0  0  0  0  0  0  0
    5.6537    0.6023    0.0000 F   0  0  0  0  0  0  0  0  0  0  0  0
   -2.8902   -2.5985    0.0000 O   0  0  0  0  0  0  0  0  0  0  0  0
   -0.2923    1.9013    0.0000 N   0  0  0  0  0  0  0  0  0  0  0  0
   -0.2923   -2.5985    0.0000 N   0  0  0  0  0  0  0  0  0  0  0  0
   -1.5913   -4.8485    0.0000 N   0  0  0  0  0  0  0  0  0  0  0  0
   -4.1892   -4.8485    0.0000 N   0  0  0  0  0  0  0  0  0  0  0  0
   -4.1892   -7.8484    0.0000 N   0  0  0  0  0  0  0  0  0  0  0  0
    1.0068   -0.3486    0.0000 C   0  0  0  0  0  0  0  0  0  0  0  0
    1.0068    1.1513    0.0000 C   0  0  0  0  0  0  0  0  0  0  0  0
    3.6047    1.1513    0.0000 C   0  0  0  0  0  0  0  0  0  0  0  0
   -0.2923   -1.0986    0.0000 C   0  0  0  0  0  0  0  0  0  0  0  0
    2.3056    1.9013    0.0000 C   0  0  0  0  0  0  0  0  0  0  0  0
    4.9037    1.9013    0.0000 C   0  0  0  0  0  0  0  0  0  0  0  0
    2.3056   -1.0986    0.0000 C   0  0  0  0  0  0  0  0  0  0  0  0
    3.6047   -0.3486    0.0000 C   0  0  0  0  0  0  0  0  0  0  0  0
   -1.5913   -0.3486    0.0000 C   0  0  0  0  0  0  0  0  0  0  0  0
   -1.5913    1.1513    0.0000 C   0  0  0  0  0  0  0  0  0  0  0  0
   -1.5913   -3.3485    0.0000 C   0  0  0  0  0  0  0  0  0  0  0  0
   -2.8902   -5.5984    0.0000 C   0  0  0  0  0  0  0  0  0  0  0  0
   -2.8902   -7.0984    0.0000 C   0  0  0  0  0  0  0  0  0  0  0  0
   -5.4883   -5.5984    0.0000 C   0  0  0  0  0  0  0  0  0  0  0  0
   -5.4883   -7.0984    0.0000 C   0  0  0  0  0  0  0  0  0  0  0  0
  1 15  1  0  0  0  0
  2 15  1  0  0  0  0
  3 15  1  0  0  0  0
  4 20  2  0  0  0  0
  5 11  1  0  0  0  0
  5 19  2  0  0  0  0
  6 13  1  0  0  0  0
  6 20  1  0  0  0  0
  7 20  1  0  0  0  0
  7 21  1  0  0  0  0
  8 21  1  0  0  0  0
  8 23  2  0  0  0  0
  9 22  1  0  0  0  0
  9 24  2  0  0  0  0
 10 11  1  0  0  0  0
 10 13  1  0  0  0  0
 10 16  2  0  0  0  0
 11 14  2  0  0  0  0
 12 14  1  0  0  0  0
 12 15  1  0  0  0  0
 12 17  2  0  0  0  0
 13 18  2  0  0  0  0
 16 17  1  0  0  0  0
 18 19  1  0  0  0  0
 21 22  2  0  0  0  0
 23 24  1  0  0  0  0
M  END
> <Value>
5.899998417198648

> <Relation>
<

> <SourceURI>
mol:CHEMBL2003817

$$$$

Generated by Molecular Materials Informatics

 20 23  0  0  0  0  0  0  0  0999 V2000
    0.4602   -4.7624    0.0000 C   0  0  0  0  0  0  0  0  0  0  0  0
    1.9627   -4.7701    0.0000 C   0  0  0  0  0  0  0  0  0  0  0  0
   -0.0103   -6.1815    0.0000 N   0  0  0  0  0  0  0  0  0  0  0  0
   -0.4656   -3.5635    0.0000 C   0  0  0  0  0  0  0  0  0  0  0  0
    2.4257   -6.1967    0.0000 C   0  0  0  0  0  0  0  0  0  0  0  0
    1.2114   -7.0694    0.0000 C   0  0  0  0  0  0  0  0  0  0  0  0
    1.2419   -1.4691    0.0000 N   0  0  0  0  0  0  0  0  0  0  0  0
   -0.1090   -2.1065    0.0000 C   0  0  0  0  0  0  0  0  0  0  0  0
    2.5850   -2.1444    0.0000 C   0  0  0  0  0  0  0  0  0  0  0  0
    2.9189   -3.6090    0.0000 C   0  0  0  0  0  0  0  0  0  0  0  0
   -1.8998   -3.9961    0.0000 N   0  0  0  0  0  0  0  0  0  0  0  0
    3.7916   -6.7962    0.0000 C   0  0  0  0  0  0  0  0  0  0  0  0
    3.7688   -1.2187    0.0000 O   0  0  0  0  0  0  0  0  0  0  0  0
    1.3557   -8.5492    0.0000 C   0  0  0  0  0  0  0  0  0  0  0  0
    3.9282   -8.2911    0.0000 C   0  0  0  0  0  0  0  0  0  0  0  0
    2.7216   -9.1638    0.0000 C   0  0  0  0  0  0  0  0  0  0  0  0
    5.3092   -8.9134    0.0000 Br  0  0  0  0  0  0  0  0  0  0  0  0
   -1.1941   -1.0821    0.0000 C   0  0  0  0  0  0  0  0  0  0  0  0
   -2.9925   -2.9488    0.0000 C   0  0  0  0  0  0  0  0  0  0  0  0
   -2.6283   -1.4918    0.0000 C   0  0  0  0  0  0  0  0  0  0  0  0
  2  1  2  0  0  0  0
  3  1  1  0  0  0  0
  4  1  1  0  0  0  0
  5  2  1  0  0  0  0
  6  3  1  0  0  0  0
  7  8  1  0  0  0  0
  8  4  1  0  0  0  0
  9 10  1  0  0  0  0
 10  2  1  0  0  0  0
 11  4  2  0  0  0  0
 12  5  1  0  0  0  0
 13  9  2  0  0  0  0
 14  6  1  0  0  0  0
 15 12  2  0  0  0  0
 16 14  2  0  0  0  0
 17 15  1  0  0  0  0
 18  8  2  0  0  0  0
 19 11  1  0  0  0  0
 20 19  2  0  0  0  0
  6  5  2  0  0  0  0
  9  7  1  0  0  0  0
 20 18  1  0  0  0  0
 15 16  1  0  0  0  0
M  END
> <Value>
5.899998417198648

> <Relation>
<

> <SourceURI>
mol:CHEMBL336961

$$$$

Generated by Molecular Materials Informatics

 23 26  0  0  0  0  0  0  0  0999 V2000
    7.3242    6.5104    0.0000 Cl  0  0  0  0  0  0  0  0  0  0  0  0
   -0.5976   -0.7031    0.0000 S   0  0  0  0  0  0  0  0  0  0  0  0
   -3.8611    1.7240    0.0000 O   0  0  0  0  0  0  0  0  0  0  0  0
    2.1280    3.5104    0.0000 O   0  0  0  0  0  0  0  0  0  0  0  0
   -3.8611   -0.7031    0.0000 N   0  0  0  0  0  0  0  0  0  0  0  0
    3.4271   -0.2396    0.0000 N   0  0  0  0  0  0  0  0  0  0  0  0
   -5.2876   -0.2396    0.0000 N   0  0  0  0  0  0  0  0  0  0  0  0
   -6.5011    2.1422    0.0000 N   0  0  0  0  0  0  0  0  0  0  0  0
    0.8289    1.2604    0.0000 C   0  0  0  0  0  0  0  0  0  0  0  0
   -1.4793    0.5104    0.0000 C   0  0  0  0  0  0  0  0  0  0  0  0
    0.8289   -0.2396    0.0000 C   0  0  0  0  0  0  0  0  0  0  0  0
    2.1280    2.0104    0.0000 C   0  0  0  0  0  0  0  0  0  0  0  0
   -0.5976    1.7240    0.0000 C   0  0  0  0  0  0  0  0  0  0  0  0
   -2.9793    0.5104    0.0000 C   0  0  0  0  0  0  0  0  0  0  0  0
    2.1280   -0.9896    0.0000 C   0  0  0  0  0  0  0  0  0  0  0  0
    3.4271    1.2604    0.0000 C   0  0  0  0  0  0  0  0  0  0  0  0
   -5.2876    1.2604    0.0000 C   0  0  0  0  0  0  0  0  0  0  0  0
    3.4271    4.2604    0.0000 C   0  0  0  0  0  0  0  0  0  0  0  0
    3.4271    5.7604    0.0000 C   0  0  0  0  0  0  0  0  0  0  0  0
    4.7260    3.5104    0.0000 C   0  0  0  0  0  0  0  0  0  0  0  0
    6.0251    5.7604    0.0000 C   0  0  0  0  0  0  0  0  0  0  0  0
    4.7260    6.5104    0.0000 C   0  0  0  0  0  0  0  0  0  0  0  0
    6.0251    4.2604    0.0000 C   0  0  0  0  0  0  0  0  0  0  0  0
  1 21  1  0  0  0  0
  2 10  1  0  0  0  0
  2 11  1  0  0  0  0
  3 14  1  0  0  0  0
  3 17  1  0  0  0  0
  4 12  1  0  0  0  0
  4 18  1  0  0  0  0
  5  7  1  0  0  0  0
  5 14  2  0  0  0  0
  6 15  1  0  0  0  0
  6 16  2  0  0  0  0
  7 17  2  0  0  0  0
  8 17  1  0  0  0  0
  9 11  1  0  0  0  0
  9 12  2  0  0  0  0
  9 13  1  0  0  0  0
 10 13  2  0  0  0  0
 10 14  1  0  0  0  0
 11 15  2  0  0  0  0
 12 16  1  0  0  0  0
 18 19  2  0  0  0  0
 18 20  1  0  0  0  0
 19 22  1  0  0  0  0
 20 23  2  0  0  0  0
 21 22  2  0  0  0  0
 21 23  1  0  0  0  0
M  END
> <Value>
5.899998417198648

> <Relation>
<

> <SourceURI>
mol:CHEMBL1994830

$$$$

Generated by Molecular Materials Informatics

 39 44  0  0  0  0  0  0  0  0999 V2000
    4.5409    4.1602    0.0000 Cl  0  0  0  0  0  0  0  0  0  0  0  0
    1.8153    5.9467    0.0000 O   0  0  0  0  0  0  0  0  0  0  0  0
  -10.8514   -2.1003    0.0000 O   0  0  0  0  0  0  0  0  0  0  0  0
  -14.6487   -0.9471    0.0000 O   0  0  0  0  0  0  0  0  0  0  0  0
   -5.3701    0.3402    0.0000 N   0  0  0  0  0  0  0  0  0  0  0  0
   -5.0581    1.8073    0.0000 N   0  0  0  0  0  0  0  0  0  0  0  0
   -3.7592   -1.8771    0.0000 N   0  0  0  0  0  0  0  0  0  0  0  0
   -1.2178   -1.3369    0.0000 N   0  0  0  0  0  0  0  0  0  0  0  0
    1.8153    8.3738    0.0000 N   0  0  0  0  0  0  0  0  0  0  0  0
   -0.5663    7.1602    0.0000 N   0  0  0  0  0  0  0  0  0  0  0  0
   -0.4151    1.1340    0.0000 N   0  0  0  0  0  0  0  0  0  0  0  0
   -2.9563    0.5938    0.0000 C   0  0  0  0  0  0  0  0  0  0  0  0
   -4.0711   -0.4098    0.0000 C   0  0  0  0  0  0  0  0  0  0  0  0
   -3.5663    1.9642    0.0000 C   0  0  0  0  0  0  0  0  0  0  0  0
   -2.8163    3.2631    0.0000 C   0  0  0  0  0  0  0  0  0  0  0  0
   -1.5298    0.1304    0.0000 C   0  0  0  0  0  0  0  0  0  0  0  0
   -6.7403   -0.2700    0.0000 C   0  0  0  0  0  0  0  0  0  0  0  0
    3.2419    6.4102    0.0000 C   0  0  0  0  0  0  0  0  0  0  0  0
    3.2419    7.9102    0.0000 C   0  0  0  0  0  0  0  0  0  0  0  0
   -3.5663    4.5622    0.0000 C   0  0  0  0  0  0  0  0  0  0  0  0
   -1.3163    3.2631    0.0000 C   0  0  0  0  0  0  0  0  0  0  0  0
   -2.3325   -2.3407    0.0000 C   0  0  0  0  0  0  0  0  0  0  0  0
    0.9337    7.1602    0.0000 C   0  0  0  0  0  0  0  0  0  0  0  0
   -1.3163    5.8613    0.0000 C   0  0  0  0  0  0  0  0  0  0  0  0
   -6.8972   -1.7618    0.0000 C   0  0  0  0  0  0  0  0  0  0  0  0
   -7.9540    0.6117    0.0000 C   0  0  0  0  0  0  0  0  0  0  0  0
    4.5409    5.6602    0.0000 C   0  0  0  0  0  0  0  0  0  0  0  0
   -2.8163    5.8613    0.0000 C   0  0  0  0  0  0  0  0  0  0  0  0
   -0.5663    4.5622    0.0000 C   0  0  0  0  0  0  0  0  0  0  0  0
    4.5409    8.6602    0.0000 C   0  0  0  0  0  0  0  0  0  0  0  0
    5.8399    7.9102    0.0000 C   0  0  0  0  0  0  0  0  0  0  0  0
    5.8399    6.4102    0.0000 C   0  0  0  0  0  0  0  0  0  0  0  0
   -8.2674   -2.3718    0.0000 C   0  0  0  0  0  0  0  0  0  0  0  0
   -9.3241    0.0017    0.0000 C   0  0  0  0  0  0  0  0  0  0  0  0
   -9.4811   -1.4902    0.0000 C   0  0  0  0  0  0  0  0  0  0  0  0
    7.1389    8.6602    0.0000 C   0  0  0  0  0  0  0  0  0  0  0  0
  -12.0649   -1.2187    0.0000 C   0  0  0  0  0  0  0  0  0  0  0  0
  -13.4352   -1.8287    0.0000 C   0  0  0  0  0  0  0  0  0  0  0  0
  -16.0191   -1.5571    0.0000 C   0  0  0  0  0  0  0  0  0  0  0  0
  1 27  1  0  0  0  0
  2 18  1  0  0  0  0
  2 23  1  0  0  0  0
  3 35  1  0  0  0  0
  3 37  1  0  0  0  0
  4 38  1  0  0  0  0
  4 39  1  0  0  0  0
  5  6  1  0  0  0  0
  5 13  1  0  0  0  0
  5 17  1  0  0  0  0
  6 14  2  0  0  0  0
  7 13  2  0  0  0  0
  7 22  1  0  0  0  0
  8 16  1  0  0  0  0
  8 22  2  0  0  0  0
  9 19  1  0  0  0  0
  9 23  2  0  0  0  0
 10 23  1  0  0  0  0
 10 24  1  0  0  0  0
 11 16  1  0  0  0  0
 12 13  1  0  0  0  0
 12 14  1  0  0  0  0
 12 16  2  0  0  0  0
 14 15  1  0  0  0  0
 15 20  2  0  0  0  0
 15 21  1  0  0  0  0
 17 25  1  0  0  0  0
 17 26  1  0  0  0  0
 18 19  1  0  0  0  0
 18 27  2  0  0  0  0
 19 30  2  0  0  0  0
 20 28  1  0  0  0  0
 21 29  2  0  0  0  0
 24 28  2  0  0  0  0
 24 29  1  0  0  0  0
 25 33  1  0  0  0  0
 26 34  1  0  0  0  0
 27 32  1  0  0  0  0
 30 31  1  0  0  0  0
 31 32  2  0  0  0  0
 31 36  1  0  0  0  0
 33 35  1  0  0  0  0
 34 35  1  0  0  0  0
 37 38  1  0  0  0  0
M  END
> <Value>
7.100015437450609

> <Relation>
=

> <SourceURI>
mol:CHEMBL1987054

$$$$

Generated by Molecular Materials Informatics

 37 41  0  0  0  0  0  0  0  0999 V2000
    1.1653    3.9766    0.0000 S   0  0  0  0  0  0  0  0  0  0  0  0
   -8.5651   -3.1748    0.0000 F   0  0  0  0  0  0  0  0  0  0  0  0
   -8.6762   -5.2932    0.0000 F   0  0  0  0  0  0  0  0  0  0  0  0
   -6.4467   -3.2859    0.0000 F   0  0  0  0  0  0  0  0  0  0  0  0
   -3.5467   -8.7485    0.0000 F   0  0  0  0  0  0  0  0  0  0  0  0
   -3.1598   -3.3539    0.0000 O   0  0  0  0  0  0  0  0  0  0  0  0
    5.1900    2.0130    0.0000 N   0  0  0  0  0  0  0  0  0  0  0  0
    3.8909   -0.2370    0.0000 N   0  0  0  0  0  0  0  0  0  0  0  0
   -0.6889   -4.1568    0.0000 N   0  0  0  0  0  0  0  0  0  0  0  0
   -2.6196   -5.8952    0.0000 N   0  0  0  0  0  0  0  0  0  0  0  0
    3.8909    8.7630    0.0000 N   0  0  0  0  0  0  0  0  0  0  0  0
    2.5918    2.0130    0.0000 C   0  0  0  0  0  0  0  0  0  0  0  0
    2.5918    3.5130    0.0000 C   0  0  0  0  0  0  0  0  0  0  0  0
    1.1653    1.5495    0.0000 C   0  0  0  0  0  0  0  0  0  0  0  0
    3.8909    4.2630    0.0000 C   0  0  0  0  0  0  0  0  0  0  0  0
    3.8909    1.2630    0.0000 C   0  0  0  0  0  0  0  0  0  0  0  0
    0.7018    0.1230    0.0000 C   0  0  0  0  0  0  0  0  0  0  0  0
    0.2836    2.7630    0.0000 C   0  0  0  0  0  0  0  0  0  0  0  0
    3.8909    5.7630    0.0000 C   0  0  0  0  0  0  0  0  0  0  0  0
    5.1900    3.5130    0.0000 C   0  0  0  0  0  0  0  0  0  0  0  0
    1.7054   -0.9918    0.0000 C   0  0  0  0  0  0  0  0  0  0  0  0
   -0.7655   -0.1888    0.0000 C   0  0  0  0  0  0  0  0  0  0  0  0
    5.1900    6.5130    0.0000 C   0  0  0  0  0  0  0  0  0  0  0  0
    2.5918    6.5130    0.0000 C   0  0  0  0  0  0  0  0  0  0  0  0
   -0.2253   -2.7303    0.0000 C   0  0  0  0  0  0  0  0  0  0  0  0
   -6.5578   -5.4043    0.0000 C   0  0  0  0  0  0  0  0  0  0  0  0
    1.2418   -2.4183    0.0000 C   0  0  0  0  0  0  0  0  0  0  0  0
   -1.2291   -1.6156    0.0000 C   0  0  0  0  0  0  0  0  0  0  0  0
   -4.0867   -6.2072    0.0000 C   0  0  0  0  0  0  0  0  0  0  0  0
   -7.5615   -4.2896    0.0000 C   0  0  0  0  0  0  0  0  0  0  0  0
   -5.0906   -5.0925    0.0000 C   0  0  0  0  0  0  0  0  0  0  0  0
   -4.5504   -7.6338    0.0000 C   0  0  0  0  0  0  0  0  0  0  0  0
   -2.1560   -4.4687    0.0000 C   0  0  0  0  0  0  0  0  0  0  0  0
   -7.0213   -6.8308    0.0000 C   0  0  0  0  0  0  0  0  0  0  0  0
    5.1900    8.0130    0.0000 C   0  0  0  0  0  0  0  0  0  0  0  0
    2.5918    8.0130    0.0000 C   0  0  0  0  0  0  0  0  0  0  0  0
   -6.0176   -7.9456    0.0000 C   0  0  0  0  0  0  0  0  0  0  0  0
  1 13  1  0  0  0  0
  1 18  1  0  0  0  0
  2 30  1  0  0  0  0
  3 30  1  0  0  0  0
  4 30  1  0  0  0  0
  5 32  1  0  0  0  0
  6 33  2  0  0  0  0
  7 16  2  0  0  0  0
  7 20  1  0  0  0  0
  8 16  1  0  0  0  0
  9 25  1  0  0  0  0
  9 33  1  0  0  0  0
 10 29  1  0  0  0  0
 10 33  1  0  0  0  0
 11 35  2  0  0  0  0
 11 36  1  0  0  0  0
 12 13  2  0  0  0  0
 12 14  1  0  0  0  0
 12 16  1  0  0  0  0
 13 15  1  0  0  0  0
 14 17  1  0  0  0  0
 14 18  2  0  0  0  0
 15 19  1  0  0  0  0
 15 20  2  0  0  0  0
 17 21  2  0  0  0  0
 17 22  1  0  0  0  0
 19 23  2  0  0  0  0
 19 24  1  0  0  0  0
 21 27  1  0  0  0  0
 22 28  2  0  0  0  0
 23 35  1  0  0  0  0
 24 36  2  0  0  0  0
 25 27  2  0  0  0  0
 25 28  1  0  0  0  0
 26 30  1  0  0  0  0
 26 31  1  0  0  0  0
 26 34  2  0  0  0  0
 29 31  2  0  0  0  0
 29 32  1  0  0  0  0
 32 37  2  0  0  0  0
 34 37  1  0  0  0  0
M  END
> <Value>
5.899998417198648

> <Relation>
<

> <SourceURI>
mol:CHEMBL1970083

$$$$

Generated by Molecular Materials Informatics

 26 30  0  0  0  0  0  0  0  0999 V2000
   -3.2767   -1.3001    0.0000 C   0  0  0  0  0  0  0  0  0  0  0  0
   -4.0267   -2.5990    0.0000 C   0  0  0  0  0  0  0  0  0  0  0  0
   -3.2767   -3.8981    0.0000 C   0  0  0  0  0  0  0  0  0  0  0  0
   -4.0267   -5.1972    0.0000 C   0  0  0  0  0  0  0  0  0  0  0  0
   -5.5267   -5.1972    0.0000 C   0  0  0  0  0  0  0  0  0  0  0  0
   -6.2767   -3.8981    0.0000 C   0  0  0  0  0  0  0  0  0  0  0  0
   -5.5267   -2.5990    0.0000 C   0  0  0  0  0  0  0  0  0  0  0  0
   -6.2767   -1.3001    0.0000 N   0  0  0  0  0  0  0  0  0  0  0  0
   -5.5267   -0.0010    0.0000 C   0  0  0  0  0  0  0  0  0  0  0  0
   -4.0267   -0.0010    0.0000 C   0  0  0  0  0  0  0  0  0  0  0  0
   -3.2767    1.2981    0.0000 C   0  0  0  0  0  0  0  0  0  0  0  0
   -1.7767    1.2981    0.0000 C   0  0  0  0  0  0  0  0  0  0  0  0
   -4.0267    2.5970    0.0000 N   0  0  0  0  0  0  0  0  0  0  0  0
   -3.2767    3.8961    0.0000 C   0  0  0  0  0  0  0  0  0  0  0  0
   -1.7767    3.8961    0.0000 C   0  0  0  0  0  0  0  0  0  0  0  0
   -1.0267    2.5970    0.0000 C   0  0  0  0  0  0  0  0  0  0  0  0
    0.4733    2.5970    0.0000 C   0  0  0  0  0  0  0  0  0  0  0  0
    1.3550    3.8106    0.0000 C   0  0  0  0  0  0  0  0  0  0  0  0
    2.7815    3.3470    0.0000 C   0  0  0  0  0  0  0  0  0  0  0  0
    4.0806    4.0970    0.0000 C   0  0  0  0  0  0  0  0  0  0  0  0
    4.0806    5.5970    0.0000 O   0  0  0  0  0  0  0  0  0  0  0  0
    5.3797    3.3470    0.0000 N   0  0  0  0  0  0  0  0  0  0  0  0
    5.3797    1.8470    0.0000 C   0  0  0  0  0  0  0  0  0  0  0  0
    4.0806    1.0970    0.0000 C   0  0  0  0  0  0  0  0  0  0  0  0
    2.7815    1.8470    0.0000 C   0  0  0  0  0  0  0  0  0  0  0  0
    1.3550    1.3835    0.0000 N   0  0  0  0  0  0  0  0  0  0  0  0
  1  2  1  0  0  0  0
 10  1  2  0  0  0  0
  2  3  1  0  0  0  0
  2  7  2  0  0  0  0
  4  3  2  0  0  0  0
  5  4  1  0  0  0  0
  6  5  2  0  0  0  0
  7  6  1  0  0  0  0
  7  8  1  0  0  0  0
  9  8  2  0  0  0  0
  9 10  1  0  0  0  0
 11 10  1  0  0  0  0
 12 11  1  0  0  0  0
 11 13  2  0  0  0  0
 16 12  2  0  0  0  0
 14 13  1  0  0  0  0
 14 15  2  0  0  0  0
 15 16  1  0  0  0  0
 16 17  1  0  0  0  0
 17 18  2  0  0  0  0
 17 26  1  0  0  0  0
 18 19  1  0  0  0  0
 19 20  1  0  0  0  0
 19 25  2  0  0  0  0
 20 21  2  0  0  0  0
 20 22  1  0  0  0  0
 23 22  1  0  0  0  0
 23 24  1  0  0  0  0
 25 24  1  0  0  0  0
 25 26  1  0  0  0  0
M  END
> <Value>
7.599980364934842

> <Relation>
=

> <SourceURI>
mol:CHEMBL226403

$$$$

Generated by Molecular Materials Informatics

 30 33  0  0  0  0  0  0  0  0999 V2000
   -8.8690    0.5533    0.0000 Br  0  0  0  0  0  0  0  0  0  0  0  0
   -0.8985    3.0143    0.0000 S   0  0  0  0  0  0  0  0  0  0  0  0
    4.6095    3.0470    0.0000 O   0  0  0  0  0  0  0  0  0  0  0  0
   -0.5865   -1.4528    0.0000 N   0  0  0  0  0  0  0  0  0  0  0  0
   -3.1846   -1.4528    0.0000 N   0  0  0  0  0  0  0  0  0  0  0  0
    5.9084    0.7971    0.0000 N   0  0  0  0  0  0  0  0  0  0  0  0
   11.1045    0.7971    0.0000 N   0  0  0  0  0  0  0  0  0  0  0  0
   13.4784    0.2926    0.0000 N   0  0  0  0  0  0  0  0  0  0  0  0
   -1.8856    0.7971    0.0000 C   0  0  0  0  0  0  0  0  0  0  0  0
   -0.5865    1.5471    0.0000 C   0  0  0  0  0  0  0  0  0  0  0  0
   -3.0003    1.8007    0.0000 C   0  0  0  0  0  0  0  0  0  0  0  0
    0.7124    0.7971    0.0000 C   0  0  0  0  0  0  0  0  0  0  0  0
   -1.8856   -0.7029    0.0000 C   0  0  0  0  0  0  0  0  0  0  0  0
   -4.4675    1.4889    0.0000 C   0  0  0  0  0  0  0  0  0  0  0  0
   -2.3901    3.1710    0.0000 C   0  0  0  0  0  0  0  0  0  0  0  0
    0.7124   -0.7029    0.0000 C   0  0  0  0  0  0  0  0  0  0  0  0
    2.0114    1.5471    0.0000 C   0  0  0  0  0  0  0  0  0  0  0  0
   -4.9309    0.0624    0.0000 C   0  0  0  0  0  0  0  0  0  0  0  0
   -5.4711    2.6036    0.0000 C   0  0  0  0  0  0  0  0  0  0  0  0
   -6.3982   -0.2494    0.0000 C   0  0  0  0  0  0  0  0  0  0  0  0
   -6.9383    2.2918    0.0000 C   0  0  0  0  0  0  0  0  0  0  0  0
   -7.4018    0.8653    0.0000 C   0  0  0  0  0  0  0  0  0  0  0  0
    3.3105    0.7971    0.0000 C   0  0  0  0  0  0  0  0  0  0  0  0
    4.6095    1.5471    0.0000 C   0  0  0  0  0  0  0  0  0  0  0  0
    7.2075    1.5471    0.0000 C   0  0  0  0  0  0  0  0  0  0  0  0
    9.8054    1.5471    0.0000 C   0  0  0  0  0  0  0  0  0  0  0  0
   12.4748    1.4073    0.0000 C   0  0  0  0  0  0  0  0  0  0  0  0
   11.2612   -0.6947    0.0000 C   0  0  0  0  0  0  0  0  0  0  0  0
    8.5065    0.7971    0.0000 C   0  0  0  0  0  0  0  0  0  0  0  0
   12.7284   -1.0065    0.0000 C   0  0  0  0  0  0  0  0  0  0  0  0
  1 22  1  0  0  0  0
  2 10  1  0  0  0  0
  2 15  1  0  0  0  0
  3 24  2  0  0  0  0
  4 13  2  0  0  0  0
  4 16  1  0  0  0  0
  5 13  1  0  0  0  0
  6 24  1  0  0  0  0
  6 25  1  0  0  0  0
  7 26  1  0  0  0  0
  7 27  1  0  0  0  0
  7 28  1  0  0  0  0
  8 27  2  0  0  0  0
  8 30  1  0  0  0  0
  9 10  2  0  0  0  0
  9 11  1  0  0  0  0
  9 13  1  0  0  0  0
 10 12  1  0  0  0  0
 11 14  1  0  0  0  0
 11 15  2  0  0  0  0
 12 16  2  0  0  0  0
 17 12  1  0  0  0  0
 14 18  2  0  0  0  0
 14 19  1  0  0  0  0
 17 23  2  0  0  0  0
 18 20  1  0  0  0  0
 19 21  2  0  0  0  0
 20 22  2  0  0  0  0
 21 22  1  0  0  0  0
 23 24  1  0  0  0  0
 25 29  1  0  0  0  0
 26 29  1  0  0  0  0
 28 30  2  0  0  0  0
M  END
> <Value>
5.899998417198648

> <Relation>
<

> <SourceURI>
mol:CHEMBL1994938

$$$$

Generated by Molecular Materials Informatics

 27 30  0  0  0  0  0  0  0  0999 V2000
   -4.9049   -1.4963    0.0000 O   0  0  0  0  0  0  0  0  0  0  0  0
   -1.9703    1.5544    0.0000 N   0  0  0  0  0  0  0  0  0  0  0  0
   -2.8520    0.3409    0.0000 N   0  0  0  0  0  0  0  0  0  0  0  0
    5.7272   -1.6638    0.0000 N   0  0  0  0  0  0  0  0  0  0  0  0
    3.5102   -2.6509    0.0000 N   0  0  0  0  0  0  0  0  0  0  0  0
   -2.4338   -2.2992    0.0000 N   0  0  0  0  0  0  0  0  0  0  0  0
    4.9772   -2.9629    0.0000 N   0  0  0  0  0  0  0  0  0  0  0  0
   -0.5438   -0.4091    0.0000 C   0  0  0  0  0  0  0  0  0  0  0  0
   -0.5438    1.0909    0.0000 C   0  0  0  0  0  0  0  0  0  0  0  0
    2.0544   -0.4091    0.0000 C   0  0  0  0  0  0  0  0  0  0  0  0
   -1.9703   -0.8727    0.0000 C   0  0  0  0  0  0  0  0  0  0  0  0
    0.7553   -1.1591    0.0000 C   0  0  0  0  0  0  0  0  0  0  0  0
    3.3532   -1.1591    0.0000 C   0  0  0  0  0  0  0  0  0  0  0  0
    0.7553    1.8409    0.0000 C   0  0  0  0  0  0  0  0  0  0  0  0
    2.0544    1.0909    0.0000 C   0  0  0  0  0  0  0  0  0  0  0  0
    4.7236   -0.5491    0.0000 C   0  0  0  0  0  0  0  0  0  0  0  0
    7.2190   -1.5069    0.0000 C   0  0  0  0  0  0  0  0  0  0  0  0
   -3.9010   -2.6110    0.0000 C   0  0  0  0  0  0  0  0  0  0  0  0
    8.1007   -2.7205    0.0000 C   0  0  0  0  0  0  0  0  0  0  0  0
   -4.3647   -4.0378    0.0000 C   0  0  0  0  0  0  0  0  0  0  0  0
    9.5925   -2.5636    0.0000 C   0  0  0  0  0  0  0  0  0  0  0  0
    7.4907   -4.0909    0.0000 C   0  0  0  0  0  0  0  0  0  0  0  0
   10.4741   -3.7772    0.0000 C   0  0  0  0  0  0  0  0  0  0  0  0
    8.3723   -5.3043    0.0000 C   0  0  0  0  0  0  0  0  0  0  0  0
    9.8641   -5.1476    0.0000 C   0  0  0  0  0  0  0  0  0  0  0  0
   -5.8318   -4.3496    0.0000 C   0  0  0  0  0  0  0  0  0  0  0  0
   -6.2954   -5.7761    0.0000 C   0  0  0  0  0  0  0  0  0  0  0  0
  1 18  2  0  0  0  0
  2  3  1  0  0  0  0
  2  9  1  0  0  0  0
  3 11  2  0  0  0  0
  4  7  1  0  0  0  0
  4 16  1  0  0  0  0
  4 17  1  0  0  0  0
  5  7  2  0  0  0  0
  5 13  1  0  0  0  0
  6 11  1  0  0  0  0
  6 18  1  0  0  0  0
  8  9  1  0  0  0  0
  8 11  1  0  0  0  0
  8 12  2  0  0  0  0
  9 14  2  0  0  0  0
 10 12  1  0  0  0  0
 10 13  1  0  0  0  0
 10 15  2  0  0  0  0
 13 16  2  0  0  0  0
 14 15  1  0  0  0  0
 17 19  1  0  0  0  0
 18 20  1  0  0  0  0
 19 21  2  0  0  0  0
 19 22  1  0  0  0  0
 20 26  1  0  0  0  0
 21 23  1  0  0  0  0
 22 24  2  0  0  0  0
 23 25  2  0  0  0  0
 24 25  1  0  0  0  0
 26 27  1  0  0  0  0
M  END
> <Value>
6.900008766455316

> <Relation>
=

> <SourceURI>
mol:CHEMBL1977223

$$$$

Generated by Molecular Materials Informatics

 13 14  0  0  0  0  0  0  0  0999 V2000
    0.5364   -3.8035    0.0000 O   0  0  0  0  0  0  0  0  0  0  0  0
   -1.0953   -0.2817    0.0000 N   0  0  0  0  0  0  0  0  0  0  0  0
    0.1182   -1.1633    0.0000 N   0  0  0  0  0  0  0  0  0  0  0  0
    0.2036    1.9683    0.0000 N   0  0  0  0  0  0  0  0  0  0  0  0
   -3.7355   -0.6999    0.0000 N   0  0  0  0  0  0  0  0  0  0  0  0
   -2.3089   -1.1633    0.0000 C   0  0  0  0  0  0  0  0  0  0  0  0
   -1.0953    1.2183    0.0000 C   0  0  0  0  0  0  0  0  0  0  0  0
   -0.3453   -2.5901    0.0000 C   0  0  0  0  0  0  0  0  0  0  0  0
   -1.8453   -2.5901    0.0000 C   0  0  0  0  0  0  0  0  0  0  0  0
   -2.3944    1.9683    0.0000 C   0  0  0  0  0  0  0  0  0  0  0  0
    0.2036    3.4683    0.0000 C   0  0  0  0  0  0  0  0  0  0  0  0
   -2.3944    3.4683    0.0000 C   0  0  0  0  0  0  0  0  0  0  0  0
   -1.0953    4.2183    0.0000 C   0  0  0  0  0  0  0  0  0  0  0  0
  1  8  2  0  0  0  0
  2  3  1  0  0  0  0
  2  6  1  0  0  0  0
  2  7  1  0  0  0  0
  3  8  1  0  0  0  0
  4  7  1  0  0  0  0
  4 11  2  0  0  0  0
  5  6  1  0  0  0  0
  6  9  2  0  0  0  0
  7 10  2  0  0  0  0
  8  9  1  0  0  0  0
 10 12  1  0  0  0  0
 11 13  1  0  0  0  0
 12 13  2  0  0  0  0
M  END
> <Value>
4.70000006855703

> <Relation>
=

> <SourceURI>
mol:CHEMBL1995765

$$$$

Generated by Molecular Materials Informatics

 18 20  0  0  0  0  0  0  0  0999 V2000
    7.2009    2.4649    0.0000 F   0  0  0  0  0  0  0  0  0  0  0  0
   -2.4832   -3.9253    0.0000 O   0  0  0  0  0  0  0  0  0  0  0  0
   -2.9014   -1.2851    0.0000 N   0  0  0  0  0  0  0  0  0  0  0  0
   -0.5933   -2.0351    0.0000 C   0  0  0  0  0  0  0  0  0  0  0  0
   -0.5933   -0.5351    0.0000 C   0  0  0  0  0  0  0  0  0  0  0  0
    2.0049   -0.5351    0.0000 C   0  0  0  0  0  0  0  0  0  0  0  0
   -2.0198   -2.4987    0.0000 C   0  0  0  0  0  0  0  0  0  0  0  0
    3.3038    0.2149    0.0000 C   0  0  0  0  0  0  0  0  0  0  0  0
    0.7058    0.2149    0.0000 C   0  0  0  0  0  0  0  0  0  0  0  0
    0.7058   -2.7851    0.0000 C   0  0  0  0  0  0  0  0  0  0  0  0
   -2.0198   -0.0717    0.0000 C   0  0  0  0  0  0  0  0  0  0  0  0
    2.0049   -2.0351    0.0000 C   0  0  0  0  0  0  0  0  0  0  0  0
    3.3038    1.7149    0.0000 C   0  0  0  0  0  0  0  0  0  0  0  0
    4.6029    2.4649    0.0000 C   0  0  0  0  0  0  0  0  0  0  0  0
    4.6029   -0.5351    0.0000 C   0  0  0  0  0  0  0  0  0  0  0  0
    5.9020    1.7149    0.0000 C   0  0  0  0  0  0  0  0  0  0  0  0
    5.9020    0.2149    0.0000 C   0  0  0  0  0  0  0  0  0  0  0  0
    4.6029    3.9649    0.0000 C   0  0  0  0  0  0  0  0  0  0  0  0
  1 16  1  0  0  0  0
  2  7  2  0  0  0  0
  3  7  1  0  0  0  0
  3 11  1  0  0  0  0
  4  5  1  0  0  0  0
  4  7  1  0  0  0  0
  4 10  2  0  0  0  0
  5  9  2  0  0  0  0
  5 11  1  0  0  0  0
  6  8  1  0  0  0  0
  6  9  1  0  0  0  0
  6 12  2  0  0  0  0
  8 13  1  0  0  0  0
  8 15  2  0  0  0  0
 10 12  1  0  0  0  0
 13 14  2  0  0  0  0
 14 16  1  0  0  0  0
 14 18  1  0  0  0  0
 15 17  1  0  0  0  0
 16 17  2  0  0  0  0
M  END
> <Value>
5.499999678657065

> <Relation>
=

> <SourceURI>
mol:CHEMBL1976290

$$$$

Generated by Molecular Materials Informatics

 34 37  0  0  0  0  0  0  0  0999 V2000
   -2.4356  -11.0887    0.0000 S   0  0  0  0  0  0  0  0  0  0  0  0
    1.4613    4.6608    0.0000 O   0  0  0  0  0  0  0  0  0  0  0  0
   -3.1856   -9.7897    0.0000 O   0  0  0  0  0  0  0  0  0  0  0  0
   -1.6857  -12.3878    0.0000 O   0  0  0  0  0  0  0  0  0  0  0  0
   -1.1366   -5.8389    0.0000 O   0  0  0  0  0  0  0  0  0  0  0  0
    0.1623    0.9109    0.0000 N   0  0  0  0  0  0  0  0  0  0  0  0
    0.1623    2.4109    0.0000 N   0  0  0  0  0  0  0  0  0  0  0  0
    1.4613   -5.8389    0.0000 N   0  0  0  0  0  0  0  0  0  0  0  0
   -3.7347  -11.8387    0.0000 N   0  0  0  0  0  0  0  0  0  0  0  0
   -8.9307  -11.8387    0.0000 N   0  0  0  0  0  0  0  0  0  0  0  0
    2.7604    0.9109    0.0000 C   0  0  0  0  0  0  0  0  0  0  0  0
    1.4613    0.1609    0.0000 C   0  0  0  0  0  0  0  0  0  0  0  0
    2.7604    2.4109    0.0000 C   0  0  0  0  0  0  0  0  0  0  0  0
    1.4613   -1.3390    0.0000 C   0  0  0  0  0  0  0  0  0  0  0  0
    1.4613    3.1608    0.0000 C   0  0  0  0  0  0  0  0  0  0  0  0
   -1.1366  -10.3388    0.0000 C   0  0  0  0  0  0  0  0  0  0  0  0
    0.1623   -8.0888    0.0000 C   0  0  0  0  0  0  0  0  0  0  0  0
    4.0593    0.1609    0.0000 C   0  0  0  0  0  0  0  0  0  0  0  0
    4.0593    3.1608    0.0000 C   0  0  0  0  0  0  0  0  0  0  0  0
    1.4613   -4.3389    0.0000 C   0  0  0  0  0  0  0  0  0  0  0  0
   -1.1366   -8.8388    0.0000 C   0  0  0  0  0  0  0  0  0  0  0  0
    2.7604   -2.0890    0.0000 C   0  0  0  0  0  0  0  0  0  0  0  0
    0.1623   -2.0890    0.0000 C   0  0  0  0  0  0  0  0  0  0  0  0
    0.1623   -6.5889    0.0000 C   0  0  0  0  0  0  0  0  0  0  0  0
    2.7604   -3.5890    0.0000 C   0  0  0  0  0  0  0  0  0  0  0  0
    0.1623   -3.5890    0.0000 C   0  0  0  0  0  0  0  0  0  0  0  0
    0.1623  -11.0887    0.0000 C   0  0  0  0  0  0  0  0  0  0  0  0
    5.3583    0.9109    0.0000 C   0  0  0  0  0  0  0  0  0  0  0  0
    1.4613   -8.8388    0.0000 C   0  0  0  0  0  0  0  0  0  0  0  0
    5.3583    2.4109    0.0000 C   0  0  0  0  0  0  0  0  0  0  0  0
    1.4613  -10.3388    0.0000 C   0  0  0  0  0  0  0  0  0  0  0  0
   -5.0337  -11.0887    0.0000 C   0  0  0  0  0  0  0  0  0  0  0  0
   -6.3326  -11.8387    0.0000 C   0  0  0  0  0  0  0  0  0  0  0  0
   -7.6317  -11.0887    0.0000 C   0  0  0  0  0  0  0  0  0  0  0  0
  1  3  2  0  0  0  0
  1  4  2  0  0  0  0
  1  9  1  0  0  0  0
  1 16  1  0  0  0  0
  2 15  2  0  0  0  0
  5 24  2  0  0  0  0
  6  7  1  0  0  0  0
  6 12  2  0  0  0  0
  7 15  1  0  0  0  0
  8 20  1  0  0  0  0
  8 24  1  0  0  0  0
  9 32  1  0  0  0  0
 10 34  1  0  0  0  0
 11 12  1  0  0  0  0
 11 13  1  0  0  0  0
 11 18  2  0  0  0  0
 12 14  1  0  0  0  0
 13 15  1  0  0  0  0
 13 19  2  0  0  0  0
 14 22  2  0  0  0  0
 14 23  1  0  0  0  0
 16 21  1  0  0  0  0
 16 27  2  0  0  0  0
 17 21  2  0  0  0  0
 17 24  1  0  0  0  0
 17 29  1  0  0  0  0
 18 28  1  0  0  0  0
 19 30  1  0  0  0  0
 20 25  2  0  0  0  0
 20 26  1  0  0  0  0
 22 25  1  0  0  0  0
 23 26  2  0  0  0  0
 27 31  1  0  0  0  0
 28 30  2  0  0  0  0
 29 31  2  0  0  0  0
 32 33  1  0  0  0  0
 33 34  1  0  0  0  0
M  END
> <Value>
5.899998417198648

> <Relation>
<

> <SourceURI>
mol:CHEMBL1966279

$$$$

Generated by Molecular Materials Informatics

 23 26  0  0  0  0  0  0  0  0999 V2000
   -5.0107    3.8431    0.0000 Cl  0  0  0  0  0  0  0  0  0  0  0  0
   -0.6090    2.9077    0.0000 N   0  0  0  0  0  0  0  0  0  0  0  0
   -1.1492   -2.0607    0.0000 N   0  0  0  0  0  0  0  0  0  0  0  0
   -3.0800    2.1047    0.0000 N   0  0  0  0  0  0  0  0  0  0  0  0
    1.5764   -2.3473    0.0000 N   0  0  0  0  0  0  0  0  0  0  0  0
   -0.0689    5.4489    0.0000 N   0  0  0  0  0  0  0  0  0  0  0  0
   -1.1492    0.3662    0.0000 C   0  0  0  0  0  0  0  0  0  0  0  0
    0.2773   -0.0973    0.0000 C   0  0  0  0  0  0  0  0  0  0  0  0
   -1.6129    1.7929    0.0000 C   0  0  0  0  0  0  0  0  0  0  0  0
    0.2773   -1.5973    0.0000 C   0  0  0  0  0  0  0  0  0  0  0  0
   -2.0309   -0.8473    0.0000 C   0  0  0  0  0  0  0  0  0  0  0  0
   -1.0727    4.3342    0.0000 C   0  0  0  0  0  0  0  0  0  0  0  0
    1.5764    0.6527    0.0000 C   0  0  0  0  0  0  0  0  0  0  0  0
   -3.5436    3.5313    0.0000 C   0  0  0  0  0  0  0  0  0  0  0  0
   -2.5398    4.6460    0.0000 C   0  0  0  0  0  0  0  0  0  0  0  0
    2.8753   -0.0973    0.0000 C   0  0  0  0  0  0  0  0  0  0  0  0
    2.8753   -1.5973    0.0000 C   0  0  0  0  0  0  0  0  0  0  0  0
    1.3982    5.1369    0.0000 C   0  0  0  0  0  0  0  0  0  0  0  0
    2.4021    6.2517    0.0000 C   0  0  0  0  0  0  0  0  0  0  0  0
    1.8619    3.7104    0.0000 C   0  0  0  0  0  0  0  0  0  0  0  0
    3.8691    5.9398    0.0000 C   0  0  0  0  0  0  0  0  0  0  0  0
    3.3290    3.3986    0.0000 C   0  0  0  0  0  0  0  0  0  0  0  0
    4.3328    4.5133    0.0000 C   0  0  0  0  0  0  0  0  0  0  0  0
  1 14  1  0  0  0  0
  2  9  1  0  0  0  0
  2 12  2  0  0  0  0
  3 10  1  0  0  0  0
  3 11  1  0  0  0  0
  4  9  2  0  0  0  0
  4 14  1  0  0  0  0
  5 10  2  0  0  0  0
  5 17  1  0  0  0  0
  6 12  1  0  0  0  0
  6 18  1  0  0  0  0
  7  8  1  0  0  0  0
  7  9  1  0  0  0  0
  7 11  2  0  0  0  0
  8 10  1  0  0  0  0
  8 13  2  0  0  0  0
 12 15  1  0  0  0  0
 13 16  1  0  0  0  0
 14 15  2  0  0  0  0
 16 17  2  0  0  0  0
 18 19  1  0  0  0  0
 18 20  1  0  0  0  0
 19 21  1  0  0  0  0
 20 22  1  0  0  0  0
 21 23  1  0  0  0  0
 22 23  1  0  0  0  0
M  END
> <Value>
5.59999938302362

> <Relation>
=

> <SourceURI>
mol:CHEMBL1997846

$$$$

Generated by Molecular Materials Informatics

 28 30  0  0  0  0  0  0  0  0999 V2000
   -8.5085  -12.0638    0.0000 F   0  0  0  0  0  0  0  0  0  0  0  0
   -6.4595  -12.6129    0.0000 F   0  0  0  0  0  0  0  0  0  0  0  0
   -7.9594  -10.0148    0.0000 F   0  0  0  0  0  0  0  0  0  0  0  0
    1.8836   -0.0641    0.0000 O   0  0  0  0  0  0  0  0  0  0  0  0
   -2.0134   -6.8139    0.0000 N   0  0  0  0  0  0  0  0  0  0  0  0
   -4.6115   -6.8139    0.0000 N   0  0  0  0  0  0  0  0  0  0  0  0
   -0.8987   -9.3175    0.0000 N   0  0  0  0  0  0  0  0  0  0  0  0
   -3.3125   -4.5640    0.0000 N   0  0  0  0  0  0  0  0  0  0  0  0
    3.1824   -2.3141    0.0000 N   0  0  0  0  0  0  0  0  0  0  0  0
   -3.3125   -9.0639    0.0000 C   0  0  0  0  0  0  0  0  0  0  0  0
   -2.0134   -8.3139    0.0000 C   0  0  0  0  0  0  0  0  0  0  0  0
   -4.6115   -8.3139    0.0000 C   0  0  0  0  0  0  0  0  0  0  0  0
   -3.3125   -6.0640    0.0000 C   0  0  0  0  0  0  0  0  0  0  0  0
   -3.0007  -10.5311    0.0000 C   0  0  0  0  0  0  0  0  0  0  0  0
   -5.9106   -9.0639    0.0000 C   0  0  0  0  0  0  0  0  0  0  0  0
   -1.5089  -10.6878    0.0000 C   0  0  0  0  0  0  0  0  0  0  0  0
   -2.0134   -3.8140    0.0000 C   0  0  0  0  0  0  0  0  0  0  0  0
   -5.9106  -10.5638    0.0000 C   0  0  0  0  0  0  0  0  0  0  0  0
    0.5845   -2.3141    0.0000 C   0  0  0  0  0  0  0  0  0  0  0  0
   -2.0134   -2.3141    0.0000 C   0  0  0  0  0  0  0  0  0  0  0  0
   -0.7145   -4.5640    0.0000 C   0  0  0  0  0  0  0  0  0  0  0  0
   -7.2094  -11.3138    0.0000 C   0  0  0  0  0  0  0  0  0  0  0  0
   -0.7145   -1.5641    0.0000 C   0  0  0  0  0  0  0  0  0  0  0  0
    0.5845   -3.8140    0.0000 C   0  0  0  0  0  0  0  0  0  0  0  0
    1.8836   -1.5641    0.0000 C   0  0  0  0  0  0  0  0  0  0  0  0
    4.4815   -1.5641    0.0000 C   0  0  0  0  0  0  0  0  0  0  0  0
    5.7805   -2.3141    0.0000 C   0  0  0  0  0  0  0  0  0  0  0  0
    7.0796   -1.5641    0.0000 C   0  0  0  0  0  0  0  0  0  0  0  0
  1 22  1  0  0  0  0
  2 22  1  0  0  0  0
  3 22  1  0  0  0  0
  4 25  2  0  0  0  0
  5 11  2  0  0  0  0
  5 13  1  0  0  0  0
  6 12  1  0  0  0  0
  6 13  2  0  0  0  0
  7 11  1  0  0  0  0
  7 16  1  0  0  0  0
  8 13  1  0  0  0  0
  8 17  1  0  0  0  0
  9 25  1  0  0  0  0
  9 26  1  0  0  0  0
 10 11  1  0  0  0  0
 10 12  2  0  0  0  0
 10 14  1  0  0  0  0
 12 15  1  0  0  0  0
 14 16  2  0  0  0  0
 15 18  1  0  0  0  0
 17 20  2  0  0  0  0
 17 21  1  0  0  0  0
 18 22  1  0  0  0  0
 19 23  2  0  0  0  0
 19 24  1  0  0  0  0
 19 25  1  0  0  0  0
 20 23  1  0  0  0  0
 21 24  2  0  0  0  0
 26 27  1  0  0  0  0
 27 28  1  0  0  0  0
M  END
> <Value>
5.40000018605658

> <Relation>
=

> <SourceURI>
mol:CHEMBL1984760

$$$$

Generated by Molecular Materials Informatics

 30 34  0  0  0  0  0  0  0  0999 V2000
    7.5445    1.0300    0.0000 S   0  0  0  0  0  0  0  0  0  0  0  0
    1.2021    5.4244    0.0000 F   0  0  0  0  0  0  0  0  0  0  0  0
   -0.5019   -4.5822    0.0000 F   0  0  0  0  0  0  0  0  0  0  0  0
    5.1705    1.5346    0.0000 N   0  0  0  0  0  0  0  0  0  0  0  0
   -1.5235    1.2109    0.0000 N   0  0  0  0  0  0  0  0  0  0  0  0
    5.4241   -0.8793    0.0000 N   0  0  0  0  0  0  0  0  0  0  0  0
   -1.5235    3.6380    0.0000 N   0  0  0  0  0  0  0  0  0  0  0  0
   -3.9052    2.4244    0.0000 N   0  0  0  0  0  0  0  0  0  0  0  0
    3.8001    0.9244    0.0000 C   0  0  0  0  0  0  0  0  0  0  0  0
    2.5012    1.6744    0.0000 C   0  0  0  0  0  0  0  0  0  0  0  0
    3.9570   -0.5673    0.0000 C   0  0  0  0  0  0  0  0  0  0  0  0
   -0.0970    1.6744    0.0000 C   0  0  0  0  0  0  0  0  0  0  0  0
    6.1741    0.4198    0.0000 C   0  0  0  0  0  0  0  0  0  0  0  0
   -0.0970    3.1744    0.0000 C   0  0  0  0  0  0  0  0  0  0  0  0
    1.2021    0.9244    0.0000 C   0  0  0  0  0  0  0  0  0  0  0  0
    1.2021    3.9244    0.0000 C   0  0  0  0  0  0  0  0  0  0  0  0
    2.5012    3.1744    0.0000 C   0  0  0  0  0  0  0  0  0  0  0  0
    2.8423   -1.5711    0.0000 C   0  0  0  0  0  0  0  0  0  0  0  0
   -2.4052    2.4244    0.0000 C   0  0  0  0  0  0  0  0  0  0  0  0
    5.9205    2.8336    0.0000 C   0  0  0  0  0  0  0  0  0  0  0  0
    7.3877    2.5216    0.0000 C   0  0  0  0  0  0  0  0  0  0  0  0
   -1.9870   -0.2156    0.0000 C   0  0  0  0  0  0  0  0  0  0  0  0
    3.1541   -3.0382    0.0000 C   0  0  0  0  0  0  0  0  0  0  0  0
    1.4156   -1.1074    0.0000 C   0  0  0  0  0  0  0  0  0  0  0  0
   -3.4543   -0.5274    0.0000 C   0  0  0  0  0  0  0  0  0  0  0  0
    2.0394   -4.0420    0.0000 C   0  0  0  0  0  0  0  0  0  0  0  0
    0.3010   -2.1113    0.0000 C   0  0  0  0  0  0  0  0  0  0  0  0
    0.6128   -3.5784    0.0000 C   0  0  0  0  0  0  0  0  0  0  0  0
   -3.9179   -1.9542    0.0000 C   0  0  0  0  0  0  0  0  0  0  0  0
   -4.4581    0.5871    0.0000 C   0  0  0  0  0  0  0  0  0  0  0  0
  1 13  1  0  0  0  0
  1 21  1  0  0  0  0
  2 16  1  0  0  0  0
  3 28  1  0  0  0  0
  4  9  1  0  0  0  0
  4 13  1  0  0  0  0
  4 20  1  0  0  0  0
  5 12  1  0  0  0  0
  5 19  1  0  0  0  0
  5 22  1  0  0  0  0
  6 11  1  0  0  0  0
  6 13  2  0  0  0  0
  7 14  1  0  0  0  0
  7 19  2  0  0  0  0
  8 19  1  0  0  0  0
  9 10  1  0  0  0  0
  9 11  2  0  0  0  0
 10 15  1  0  0  0  0
 10 17  2  0  0  0  0
 11 18  1  0  0  0  0
 12 14  1  0  0  0  0
 12 15  2  0  0  0  0
 14 16  2  0  0  0  0
 16 17  1  0  0  0  0
 18 23  2  0  0  0  0
 18 24  1  0  0  0  0
 20 21  2  0  0  0  0
 22 25  1  0  0  0  0
 23 26  1  0  0  0  0
 24 27  2  0  0  0  0
 25 29  1  0  0  0  0
 25 30  1  0  0  0  0
 26 28  2  0  0  0  0
 27 28  1  0  0  0  0
M  END
> <Value>
5.899998417198648

> <Relation>
<

> <SourceURI>
mol:CHEMBL2004419

$$$$

Generated by Molecular Materials Informatics

 35 40  0  0  0  0  0  0  0  0999 V2000
    8.3627   -2.0217    0.0000 N   0  0  0  0  0  0  0  0  0  0  0  0
    7.6127    0.2887    0.0000 C   0  0  0  0  0  0  0  0  0  0  0  0
    7.1458   -1.1446    0.0000 C   0  0  0  0  0  0  0  0  0  0  0  0
    9.1127    0.2887    0.0000 C   0  0  0  0  0  0  0  0  0  0  0  0
    9.5763   -1.1406    0.0000 C   0  0  0  0  0  0  0  0  0  0  0  0
   11.0429   -1.4511    0.0000 C   0  0  0  0  0  0  0  0  0  0  0  0
   12.0474   -0.3342    0.0000 C   0  0  0  0  0  0  0  0  0  0  0  0
   11.5751    1.0982    0.0000 C   0  0  0  0  0  0  0  0  0  0  0  0
   10.1096    1.4020    0.0000 C   0  0  0  0  0  0  0  0  0  0  0  0
    6.7316    1.5027    0.0000 C   0  0  0  0  0  0  0  0  0  0  0  0
    7.2014    2.9336    0.0000 C   0  0  0  0  0  0  0  0  0  0  0  0
    5.9871    3.8171    0.0000 N   0  0  0  0  0  0  0  0  0  0  0  0
    4.7729    2.9327    0.0000 C   0  0  0  0  0  0  0  0  0  0  0  0
    5.2411    1.5058    0.0000 C   0  0  0  0  0  0  0  0  0  0  0  0
    4.3600    0.2918    0.0000 C   0  0  0  0  0  0  0  0  0  0  0  0
    3.6122   -2.0238    0.0000 N   0  0  0  0  0  0  0  0  0  0  0  0
    4.8254   -1.1417    0.0000 C   0  0  0  0  0  0  0  0  0  0  0  0
    2.3983   -1.1426    0.0000 C   0  0  0  0  0  0  0  0  0  0  0  0
    2.8640    0.2829    0.0000 C   0  0  0  0  0  0  0  0  0  0  0  0
    1.8634    1.3952    0.0000 C   0  0  0  0  0  0  0  0  0  0  0  0
    0.3967    1.0843    0.0000 C   0  0  0  0  0  0  0  0  0  0  0  0
   -0.0638   -0.3488    0.0000 C   0  0  0  0  0  0  0  0  0  0  0  0
    0.9400   -1.4551    0.0000 C   0  0  0  0  0  0  0  0  0  0  0  0
    8.6289    3.3945    0.0000 O   0  0  0  0  0  0  0  0  0  0  0  0
    3.3454    3.3932    0.0000 O   0  0  0  0  0  0  0  0  0  0  0  0
    3.6127   -3.5238    0.0000 C   0  0  0  0  0  0  0  0  0  0  0  0
    8.3654   -3.5217    0.0000 C   0  0  0  0  0  0  0  0  0  0  0  0
    7.0676   -4.2740    0.0000 C   0  0  0  0  0  0  0  0  0  0  0  0
    4.9120   -4.2733    0.0000 C   0  0  0  0  0  0  0  0  0  0  0  0
    4.9125   -5.7733    0.0000 O   0  0  0  0  0  0  0  0  0  0  0  0
    7.0702   -5.7740    0.0000 C   0  0  0  0  0  0  0  0  0  0  0  0
    8.1316   -6.8338    0.0000 C   0  0  0  0  0  0  0  0  0  0  0  0
    9.5803   -6.4446    0.0000 N   0  0  0  0  0  0  0  0  0  0  0  0
   10.6416   -7.5046    0.0000 C   0  0  0  0  0  0  0  0  0  0  0  0
    9.9674   -4.9955    0.0000 C   0  0  0  0  0  0  0  0  0  0  0  0
  7  8  1  0  0  0  0
 15 19  1  0  0  0  0
 18 16  1  0  0  0  0
 17 15  2  0  0  0  0
  2  3  2  0  0  0  0
  8  9  2  0  0  0  0
 18 19  1  0  0  0  0
  9  4  1  0  0  0  0
 19 20  2  0  0  0  0
 20 21  1  0  0  0  0
  2 10  1  0  0  0  0
 21 22  2  0  0  0  0
 11 12  1  0  0  0  0
 22 23  1  0  0  0  0
 23 18  2  0  0  0  0
  4  5  2  0  0  0  0
 11 24  2  0  0  0  0
  1  5  1  0  0  0  0
 13 25  2  0  0  0  0
  5  6  1  0  0  0  0
 16 26  1  0  0  0  0
  4  2  1  0  0  0  0
  1 27  1  0  0  0  0
 10 11  1  0  0  0  0
 27 28  1  0  0  0  0
 12 13  1  0  0  0  0
 26 29  1  0  0  0  0
 13 14  1  0  0  0  0
 29 30  1  0  0  0  0
 14 10  2  0  0  0  0
 28 31  1  0  0  0  0
 31 30  1  0  0  0  0
  6  7  2  0  0  0  0
 31 32  1  0  0  0  0
 14 15  1  0  0  0  0
 32 33  1  0  0  0  0
 16 17  1  0  0  0  0
 33 34  1  0  0  0  0
  3  1  1  0  0  0  0
 33 35  1  0  0  0  0
M  END
> <Value>
5.300000202445418

> <Relation>
<

> <SourceURI>
mol:CHEMBL360847

$$$$

Generated by Molecular Materials Informatics

 36 39  0  0  0  0  0  0  0  0999 V2000
  -11.4802   -5.2331    0.0000 O   0  0  0  0  0  0  0  0  0  0  0  0
   -2.0606   -2.1960    0.0000 O   0  0  0  0  0  0  0  0  0  0  0  0
    4.4347   -4.4460    0.0000 O   0  0  0  0  0  0  0  0  0  0  0  0
   -7.2567   -3.6960    0.0000 N   0  0  0  0  0  0  0  0  0  0  0  0
   -7.4135   -2.2042    0.0000 N   0  0  0  0  0  0  0  0  0  0  0  0
   -8.9389   -5.7733    0.0000 N   0  0  0  0  0  0  0  0  0  0  0  0
  -10.6773   -7.7042    0.0000 N   0  0  0  0  0  0  0  0  0  0  0  0
   -0.7615   -4.4460    0.0000 N   0  0  0  0  0  0  0  0  0  0  0  0
   -8.6271   -4.3062    0.0000 C   0  0  0  0  0  0  0  0  0  0  0  0
   -8.8807   -1.8924    0.0000 C   0  0  0  0  0  0  0  0  0  0  0  0
   -5.9576   -4.4460    0.0000 C   0  0  0  0  0  0  0  0  0  0  0  0
   -9.6307   -3.1915    0.0000 C   0  0  0  0  0  0  0  0  0  0  0  0
   -9.4907   -0.5220    0.0000 C   0  0  0  0  0  0  0  0  0  0  0  0
   -4.6586   -3.6960    0.0000 C   0  0  0  0  0  0  0  0  0  0  0  0
   -3.3596   -4.4460    0.0000 C   0  0  0  0  0  0  0  0  0  0  0  0
   -5.9576   -5.9460    0.0000 C   0  0  0  0  0  0  0  0  0  0  0  0
  -10.3655   -6.2369    0.0000 C   0  0  0  0  0  0  0  0  0  0  0  0
   -9.5626   -8.7078    0.0000 C   0  0  0  0  0  0  0  0  0  0  0  0
   -9.8746  -10.1751    0.0000 C   0  0  0  0  0  0  0  0  0  0  0  0
   -8.7598  -11.1787    0.0000 C   0  0  0  0  0  0  0  0  0  0  0  0
   -3.3596   -5.9460    0.0000 C   0  0  0  0  0  0  0  0  0  0  0  0
   -4.6586   -6.6960    0.0000 C   0  0  0  0  0  0  0  0  0  0  0  0
   -2.0606   -3.6960    0.0000 C   0  0  0  0  0  0  0  0  0  0  0  0
  -10.1009    0.8482    0.0000 C   0  0  0  0  0  0  0  0  0  0  0  0
  -10.8611   -1.1322    0.0000 C   0  0  0  0  0  0  0  0  0  0  0  0
   -8.1206    0.0880    0.0000 C   0  0  0  0  0  0  0  0  0  0  0  0
   -8.1360   -8.2442    0.0000 C   0  0  0  0  0  0  0  0  0  0  0  0
  -11.3011  -10.6386    0.0000 C   0  0  0  0  0  0  0  0  0  0  0  0
   -7.3333  -10.7151    0.0000 C   0  0  0  0  0  0  0  0  0  0  0  0
   -9.0716  -12.6460    0.0000 C   0  0  0  0  0  0  0  0  0  0  0  0
   -7.0213   -9.2480    0.0000 C   0  0  0  0  0  0  0  0  0  0  0  0
  -11.6129  -12.1058    0.0000 C   0  0  0  0  0  0  0  0  0  0  0  0
  -10.4982  -13.1095    0.0000 C   0  0  0  0  0  0  0  0  0  0  0  0
    0.5374   -3.6960    0.0000 C   0  0  0  0  0  0  0  0  0  0  0  0
    1.8365   -4.4460    0.0000 C   0  0  0  0  0  0  0  0  0  0  0  0
    3.1356   -3.6960    0.0000 C   0  0  0  0  0  0  0  0  0  0  0  0
  1 17  2  0  0  0  0
  2 23  2  0  0  0  0
  3 36  1  0  0  0  0
  4  5  1  0  0  0  0
  4  9  1  0  0  0  0
  4 11  1  0  0  0  0
  5 10  2  0  0  0  0
  6  9  1  0  0  0  0
  6 17  1  0  0  0  0
  7 17  1  0  0  0  0
  7 18  1  0  0  0  0
  8 23  1  0  0  0  0
  8 34  1  0  0  0  0
  9 12  2  0  0  0  0
 10 12  1  0  0  0  0
 10 13  1  0  0  0  0
 11 14  1  0  0  0  0
 11 16  2  0  0  0  0
 13 24  1  0  0  0  0
 13 25  1  0  0  0  0
 13 26  1  0  0  0  0
 14 15  2  0  0  0  0
 15 21  1  0  0  0  0
 15 23  1  0  0  0  0
 16 22  1  0  0  0  0
 18 19  1  0  0  0  0
 18 27  2  0  0  0  0
 19 20  1  0  0  0  0
 19 28  2  0  0  0  0
 20 29  1  0  0  0  0
 20 30  2  0  0  0  0
 21 22  2  0  0  0  0
 27 31  1  0  0  0  0
 28 32  1  0  0  0  0
 29 31  2  0  0  0  0
 30 33  1  0  0  0  0
 32 33  2  0  0  0  0
 34 35  1  0  0  0  0
 35 36  1  0  0  0  0
M  END
> <Value>
5.300000202445418

> <Relation>
<

> <SourceURI>
mol:CHEMBL2007073

$$$$

Generated by Molecular Materials Informatics

 32 36  0  0  0  0  0  0  0  0999 V2000
   -1.5637   -4.5897    0.0000 F   0  0  0  0  0  0  0  0  0  0  0  0
   -7.4325   -5.8372    0.0000 F   0  0  0  0  0  0  0  0  0  0  0  0
   -4.5748   -1.2455    0.0000 O   0  0  0  0  0  0  0  0  0  0  0  0
   -1.6403    1.8052    0.0000 N   0  0  0  0  0  0  0  0  0  0  0  0
   -2.5219    0.5918    0.0000 N   0  0  0  0  0  0  0  0  0  0  0  0
   -2.1037   -2.0484    0.0000 N   0  0  0  0  0  0  0  0  0  0  0  0
    6.0574   -1.4130    0.0000 N   0  0  0  0  0  0  0  0  0  0  0  0
    3.8403   -2.4001    0.0000 N   0  0  0  0  0  0  0  0  0  0  0  0
    5.3074   -2.7121    0.0000 N   0  0  0  0  0  0  0  0  0  0  0  0
   -0.2137   -0.1582    0.0000 C   0  0  0  0  0  0  0  0  0  0  0  0
   -0.2137    1.3418    0.0000 C   0  0  0  0  0  0  0  0  0  0  0  0
   -1.6403   -0.6219    0.0000 C   0  0  0  0  0  0  0  0  0  0  0  0
    2.3844   -0.1582    0.0000 C   0  0  0  0  0  0  0  0  0  0  0  0
    1.0854   -0.9082    0.0000 C   0  0  0  0  0  0  0  0  0  0  0  0
    3.6834   -0.9082    0.0000 C   0  0  0  0  0  0  0  0  0  0  0  0
    1.0854    2.0918    0.0000 C   0  0  0  0  0  0  0  0  0  0  0  0
    2.3844    1.3418    0.0000 C   0  0  0  0  0  0  0  0  0  0  0  0
   -3.5710   -2.3602    0.0000 C   0  0  0  0  0  0  0  0  0  0  0  0
   -4.0346   -3.7870    0.0000 C   0  0  0  0  0  0  0  0  0  0  0  0
    5.0537   -0.2982    0.0000 C   0  0  0  0  0  0  0  0  0  0  0  0
   -3.0308   -4.9015    0.0000 C   0  0  0  0  0  0  0  0  0  0  0  0
   -5.5017   -4.0988    0.0000 C   0  0  0  0  0  0  0  0  0  0  0  0
   -5.9654   -5.5253    0.0000 C   0  0  0  0  0  0  0  0  0  0  0  0
    7.5492   -1.2561    0.0000 C   0  0  0  0  0  0  0  0  0  0  0  0
   -3.4945   -6.3282    0.0000 C   0  0  0  0  0  0  0  0  0  0  0  0
   -4.9616   -6.6401    0.0000 C   0  0  0  0  0  0  0  0  0  0  0  0
    8.4308   -2.4697    0.0000 C   0  0  0  0  0  0  0  0  0  0  0  0
    9.9226   -2.3128    0.0000 C   0  0  0  0  0  0  0  0  0  0  0  0
    7.8208   -3.8401    0.0000 C   0  0  0  0  0  0  0  0  0  0  0  0
   10.8043   -3.5264    0.0000 C   0  0  0  0  0  0  0  0  0  0  0  0
    8.7024   -5.0535    0.0000 C   0  0  0  0  0  0  0  0  0  0  0  0
   10.1943   -4.8968    0.0000 C   0  0  0  0  0  0  0  0  0  0  0  0
  1 21  1  0  0  0  0
  2 23  1  0  0  0  0
  3 18  2  0  0  0  0
  4  5  1  0  0  0  0
  4 11  1  0  0  0  0
  5 12  2  0  0  0  0
  6 12  1  0  0  0  0
  6 18  1  0  0  0  0
  7  9  1  0  0  0  0
  7 20  1  0  0  0  0
  7 24  1  0  0  0  0
  8  9  2  0  0  0  0
  8 15  1  0  0  0  0
 10 11  1  0  0  0  0
 10 12  1  0  0  0  0
 10 14  2  0  0  0  0
 11 16  2  0  0  0  0
 13 14  1  0  0  0  0
 13 15  1  0  0  0  0
 13 17  2  0  0  0  0
 15 20  2  0  0  0  0
 16 17  1  0  0  0  0
 18 19  1  0  0  0  0
 19 21  1  0  0  0  0
 19 22  2  0  0  0  0
 21 25  2  0  0  0  0
 22 23  1  0  0  0  0
 23 26  2  0  0  0  0
 24 27  1  0  0  0  0
 25 26  1  0  0  0  0
 27 28  2  0  0  0  0
 27 29  1  0  0  0  0
 28 30  1  0  0  0  0
 29 31  2  0  0  0  0
 30 32  2  0  0  0  0
 31 32  1  0  0  0  0
M  END
> <Value>
7.299988937677887

> <Relation>
=

> <SourceURI>
mol:CHEMBL1995811

$$$$

Generated by Molecular Materials Informatics

 21 22  0  0  0  0  0  0  0  0999 V2000
    8.4075    2.1826    0.0000 O   0  0  0  0  0  0  0  0  0  0  0  0
    8.4075   -0.8174    0.0000 O   0  0  0  0  0  0  0  0  0  0  0  0
    3.1260   -0.9490    0.0000 N   0  0  0  0  0  0  0  0  0  0  0  0
    2.6625   -2.3757    0.0000 N   0  0  0  0  0  0  0  0  0  0  0  0
    0.2809   -3.5892    0.0000 N   0  0  0  0  0  0  0  0  0  0  0  0
   -2.1541   -0.0221    0.0000 N   0  0  0  0  0  0  0  0  0  0  0  0
   -0.6856    2.9326    0.0000 N   0  0  0  0  0  0  0  0  0  0  0  0
    1.9126   -0.0674    0.0000 C   0  0  0  0  0  0  0  0  0  0  0  0
    0.6989   -0.9490    0.0000 C   0  0  0  0  0  0  0  0  0  0  0  0
    1.9126    1.4326    0.0000 C   0  0  0  0  0  0  0  0  0  0  0  0
    1.1626   -2.3757    0.0000 C   0  0  0  0  0  0  0  0  0  0  0  0
    4.5105    1.4326    0.0000 C   0  0  0  0  0  0  0  0  0  0  0  0
    3.2114    2.1826    0.0000 C   0  0  0  0  0  0  0  0  0  0  0  0
    7.1087    1.4326    0.0000 C   0  0  0  0  0  0  0  0  0  0  0  0
   -0.7276   -0.4856    0.0000 C   0  0  0  0  0  0  0  0  0  0  0  0
    5.8096    2.1826    0.0000 C   0  0  0  0  0  0  0  0  0  0  0  0
    7.1087   -0.0674    0.0000 C   0  0  0  0  0  0  0  0  0  0  0  0
    0.6135    2.1826    0.0000 C   0  0  0  0  0  0  0  0  0  0  0  0
    4.5105   -0.0674    0.0000 C   0  0  0  0  0  0  0  0  0  0  0  0
    5.8096   -0.8174    0.0000 C   0  0  0  0  0  0  0  0  0  0  0  0
    9.7066    1.4326    0.0000 C   0  0  0  0  0  0  0  0  0  0  0  0
  1 14  1  0  0  0  0
  1 21  1  0  0  0  0
  2 17  1  0  0  0  0
  3  4  1  0  0  0  0
  3  8  2  0  0  0  0
  4 11  1  0  0  0  0
  5 11  1  0  0  0  0
  6 15  3  0  0  0  0
  7 18  3  0  0  0  0
  8  9  1  0  0  0  0
  8 10  1  0  0  0  0
  9 11  2  0  0  0  0
  9 15  1  0  0  0  0
 10 13  2  0  0  0  0
 10 18  1  0  0  0  0
 13 12  1  0  0  0  0
 12 16  1  0  0  0  0
 12 19  2  0  0  0  0
 14 16  2  0  0  0  0
 14 17  1  0  0  0  0
 17 20  2  0  0  0  0
 19 20  1  0  0  0  0
M  END
> <Value>
6.799998134593398

> <Relation>
=

> <SourceURI>
mol:CHEMBL2002407

$$$$

Generated by Molecular Materials Informatics

 16 18  0  0  0  0  0  0  0  0999 V2000
    4.5211   -1.2994    0.0000 Br  0  0  0  0  0  0  0  0  0  0  0  0
   -1.6842    0.2006    0.0000 N   0  0  0  0  0  0  0  0  0  0  0  0
   -0.8026    1.4140    0.0000 N   0  0  0  0  0  0  0  0  0  0  0  0
    0.6240   -0.5494    0.0000 C   0  0  0  0  0  0  0  0  0  0  0  0
   -0.8026   -1.0130    0.0000 C   0  0  0  0  0  0  0  0  0  0  0  0
    0.6240    0.9506    0.0000 C   0  0  0  0  0  0  0  0  0  0  0  0
   -1.2660   -2.4396    0.0000 C   0  0  0  0  0  0  0  0  0  0  0  0
    1.9231   -1.2994    0.0000 C   0  0  0  0  0  0  0  0  0  0  0  0
    1.9231    1.7006    0.0000 C   0  0  0  0  0  0  0  0  0  0  0  0
    3.2221   -0.5494    0.0000 C   0  0  0  0  0  0  0  0  0  0  0  0
    3.2221    0.9506    0.0000 C   0  0  0  0  0  0  0  0  0  0  0  0
   -0.2624   -3.5543    0.0000 C   0  0  0  0  0  0  0  0  0  0  0  0
   -2.7333   -2.7514    0.0000 C   0  0  0  0  0  0  0  0  0  0  0  0
   -0.7260   -4.9809    0.0000 C   0  0  0  0  0  0  0  0  0  0  0  0
   -3.1970   -4.1781    0.0000 C   0  0  0  0  0  0  0  0  0  0  0  0
   -2.1931   -5.2927    0.0000 C   0  0  0  0  0  0  0  0  0  0  0  0
  1 10  1  0  0  0  0
  2  3  1  0  0  0  0
  2  5  2  0  0  0  0
  3  6  1  0  0  0  0
  4  5  1  0  0  0  0
  4  6  1  0  0  0  0
  4  8  2  0  0  0  0
  5  7  1  0  0  0  0
  6  9  2  0  0  0  0
  7 12  2  0  0  0  0
  7 13  1  0  0  0  0
  8 10  1  0  0  0  0
  9 11  1  0  0  0  0
 10 11  2  0  0  0  0
 12 14  1  0  0  0  0
 13 15  2  0  0  0  0
 14 16  2  0  0  0  0
 15 16  1  0  0  0  0
M  END
> <Value>
5.899998417198648

> <Relation>
<

> <SourceURI>
mol:CHEMBL1994074

$$$$

Generated by Molecular Materials Informatics

 20 22  0  0  0  0  0  0  0  0999 V2000
    6.1999   -0.6163    0.0000 O   0  5  0  0  0  0  0  0  0  0  0  0
    4.9008   -2.8662    0.0000 O   0  0  0  0  0  0  0  0  0  0  0  0
   -0.4227   -1.0799    0.0000 N   0  0  0  0  0  0  0  0  0  0  0  0
   -0.4227    1.3471    0.0000 N   0  0  0  0  0  0  0  0  0  0  0  0
   -2.8043    0.1337    0.0000 N   0  0  0  0  0  0  0  0  0  0  0  0
    4.9008   -1.3663    0.0000 N   0  3  0  0  0  0  0  0  0  0  0  0
   -5.0543   -1.1654    0.0000 N   0  0  0  0  0  0  0  0  0  0  0  0
    1.0038   -0.6163    0.0000 C   0  0  0  0  0  0  0  0  0  0  0  0
    1.0038    0.8837    0.0000 C   0  0  0  0  0  0  0  0  0  0  0  0
   -1.3044    0.1337    0.0000 C   0  0  0  0  0  0  0  0  0  0  0  0
    2.3029   -1.3663    0.0000 C   0  0  0  0  0  0  0  0  0  0  0  0
    3.6019   -0.6163    0.0000 C   0  0  0  0  0  0  0  0  0  0  0  0
    2.3029    1.6337    0.0000 C   0  0  0  0  0  0  0  0  0  0  0  0
    3.6019    0.8837    0.0000 C   0  0  0  0  0  0  0  0  0  0  0  0
   -3.5543   -1.1654    0.0000 C   0  0  0  0  0  0  0  0  0  0  0  0
   -2.8043   -2.4644    0.0000 C   0  0  0  0  0  0  0  0  0  0  0  0
   -5.0543   -3.7635    0.0000 C   0  0  0  0  0  0  0  0  0  0  0  0
   -5.8043   -2.4644    0.0000 C   0  0  0  0  0  0  0  0  0  0  0  0
   -3.5543   -3.7635    0.0000 C   0  0  0  0  0  0  0  0  0  0  0  0
   -5.8043   -5.0624    0.0000 C   0  0  0  0  0  0  0  0  0  0  0  0
  1  6  1  0  0  0  0
  2  6  2  0  0  0  0
  3  8  1  0  0  0  0
  3 10  1  0  0  0  0
  4  9  1  0  0  0  0
  4 10  2  0  0  0  0
  5 10  1  0  0  0  0
  5 15  1  0  0  0  0
  6 12  1  0  0  0  0
  7 15  1  0  0  0  0
  7 18  2  0  0  0  0
  8  9  1  0  0  0  0
  8 11  2  0  0  0  0
  9 13  2  0  0  0  0
 11 12  1  0  0  0  0
 12 14  2  0  0  0  0
 13 14  1  0  0  0  0
 15 16  2  0  0  0  0
 16 19  1  0  0  0  0
 17 18  1  0  0  0  0
 17 19  2  0  0  0  0
 17 20  1  0  0  0  0
M  CHG  2   1  -1   6   1
M  END
> <Value>
5.40000018605658

> <Relation>
<

> <SourceURI>
mol:CHEMBL1992937

$$$$

Generated by Molecular Materials Informatics

 12 13  0  0  0  0  0  0  0  0999 V2000
   12.1609   -4.7018    0.0000 C   0  0  0  0  0  0  0  0  0  0  0  0
   12.1587   -6.2024    0.0000 C   0  0  0  0  0  0  0  0  0  0  0  0
   13.4513   -6.9513    0.0000 C   0  0  0  0  0  0  0  0  0  0  0  0
   13.4477   -3.9536    0.0000 C   0  0  0  0  0  0  0  0  0  0  0  0
   14.7499   -4.6948    0.0000 C   0  0  0  0  0  0  0  0  0  0  0  0
   14.7510   -6.2024    0.0000 C   0  0  0  0  0  0  0  0  0  0  0  0
   16.1854   -6.6677    0.0000 N   0  0  0  0  0  0  0  0  0  0  0  0
   17.0710   -5.4471    0.0000 N   0  0  0  0  0  0  0  0  0  0  0  0
   16.1838   -4.2279    0.0000 C   0  0  0  0  0  0  0  0  0  0  0  0
   13.4497   -8.4472    0.0000 C   0  0  0  0  0  0  0  0  0  0  0  0
   12.1532   -9.1935    0.0000 N   0  0  0  0  0  0  0  0  0  0  0  0
   14.7443   -9.1965    0.0000 O   0  0  0  0  0  0  0  0  0  0  0  0
  2  3  1  0  0  0  0
  3  6  2  0  0  0  0
  1  2  2  0  0  0  0
  5  4  2  0  0  0  0
  6  7  1  0  0  0  0
  7  8  1  0  0  0  0
  8  9  2  0  0  0  0
  9  5  1  0  0  0  0
  4  1  1  0  0  0  0
  3 10  1  0  0  0  0
  5  6  1  0  0  0  0
 10 11  1  0  0  0  0
 10 12  2  0  0  0  0
M  END
> <Value>
4.600000074606178

> <Relation>
=

> <SourceURI>
mol:CHEMBL451401

$$$$

Generated by Molecular Materials Informatics

 23 25  0  0  0  0  0  0  0  0999 V2000
   -4.6828    2.8801    0.0000 Cl  0  0  0  0  0  0  0  0  0  0  0  0
   -0.2811    1.9447    0.0000 N   0  0  0  0  0  0  0  0  0  0  0  0
   -0.8213   -3.0238    0.0000 N   0  0  0  0  0  0  0  0  0  0  0  0
   -2.2119    3.6831    0.0000 N   0  0  0  0  0  0  0  0  0  0  0  0
    1.9044   -3.3104    0.0000 N   0  0  0  0  0  0  0  0  0  0  0  0
    0.2591    4.4860    0.0000 N   0  0  0  0  0  0  0  0  0  0  0  0
    1.3395    9.5687    0.0000 N   0  0  0  0  0  0  0  0  0  0  0  0
   -0.8213   -0.5968    0.0000 C   0  0  0  0  0  0  0  0  0  0  0  0
    0.6053   -1.0603    0.0000 C   0  0  0  0  0  0  0  0  0  0  0  0
   -1.2849    0.8299    0.0000 C   0  0  0  0  0  0  0  0  0  0  0  0
    0.6053   -2.5603    0.0000 C   0  0  0  0  0  0  0  0  0  0  0  0
   -1.7030   -1.8103    0.0000 C   0  0  0  0  0  0  0  0  0  0  0  0
   -0.7448    3.3712    0.0000 C   0  0  0  0  0  0  0  0  0  0  0  0
   -2.7521    1.1417    0.0000 C   0  0  0  0  0  0  0  0  0  0  0  0
    1.9044   -0.3103    0.0000 C   0  0  0  0  0  0  0  0  0  0  0  0
   -3.2157    2.5683    0.0000 C   0  0  0  0  0  0  0  0  0  0  0  0
    3.2033   -1.0603    0.0000 C   0  0  0  0  0  0  0  0  0  0  0  0
    3.2033   -2.5603    0.0000 C   0  0  0  0  0  0  0  0  0  0  0  0
    0.7993    7.0273    0.0000 C   0  0  0  0  0  0  0  0  0  0  0  0
   -0.2046    5.9126    0.0000 C   0  0  0  0  0  0  0  0  0  0  0  0
    1.8029    8.1421    0.0000 C   0  0  0  0  0  0  0  0  0  0  0  0
   -0.3155    8.0310    0.0000 C   0  0  0  0  0  0  0  0  0  0  0  0
    1.9140    6.0237    0.0000 C   0  0  0  0  0  0  0  0  0  0  0  0
  1 16  1  0  0  0  0
  2 10  2  0  0  0  0
  2 13  1  0  0  0  0
  3 11  1  0  0  0  0
  3 12  1  0  0  0  0
  4 13  2  0  0  0  0
  4 16  1  0  0  0  0
  5 11  2  0  0  0  0
  5 18  1  0  0  0  0
  6 13  1  0  0  0  0
  6 20  1  0  0  0  0
  7 21  1  0  0  0  0
  8  9  1  0  0  0  0
  8 10  1  0  0  0  0
  8 12  2  0  0  0  0
  9 11  1  0  0  0  0
  9 15  2  0  0  0  0
 10 14  1  0  0  0  0
 14 16  2  0  0  0  0
 15 17  1  0  0  0  0
 17 18  2  0  0  0  0
 19 20  1  0  0  0  0
 19 21  1  0  0  0  0
 19 22  1  0  0  0  0
 19 23  1  0  0  0  0
M  END
> <Value>
7.599980364934842

> <Relation>
=

> <SourceURI>
mol:CHEMBL1968930

$$$$

Generated by Molecular Materials Informatics

 42 47  0  0  0  0  0  0  0  0999 V2000
    6.7419   -4.8220    0.0000 O   0  0  0  0  0  0  0  0  0  0  0  0
   10.7573    4.7081    0.0000 O   0  0  0  0  0  0  0  0  0  0  0  0
   -2.8435   -1.5836    0.0000 O   0  0  0  0  0  0  0  0  0  0  0  0
   -9.4410    4.5379    0.0000 O   0  0  0  0  0  0  0  0  0  0  0  0
    5.3412   -0.1845    0.0000 N   0  0  0  0  0  0  0  0  0  0  0  0
    4.5912   -3.4706    0.0000 N   0  0  0  0  0  0  0  0  0  0  0  0
   -7.2419    2.4973    0.0000 N   0  0  0  0  0  0  0  0  0  0  0  0
   12.9564    6.7486    0.0000 N   0  0  0  0  0  0  0  0  0  0  0  0
    6.6927   -0.8355    0.0000 C   0  0  0  0  0  0  0  0  0  0  0  0
    7.0263   -2.2978    0.0000 C   0  0  0  0  0  0  0  0  0  0  0  0
    3.9897   -0.8355    0.0000 C   0  0  0  0  0  0  0  0  0  0  0  0
    3.6559   -2.2978    0.0000 C   0  0  0  0  0  0  0  0  0  0  0  0
    9.2256   -0.2573    0.0000 C   0  0  0  0  0  0  0  0  0  0  0  0
    6.0912   -3.4706    0.0000 C   0  0  0  0  0  0  0  0  0  0  0  0
    7.7921    0.1849    0.0000 C   0  0  0  0  0  0  0  0  0  0  0  0
   10.3251    0.7629    0.0000 C   0  0  0  0  0  0  0  0  0  0  0  0
    8.4598   -2.7400    0.0000 C   0  0  0  0  0  0  0  0  0  0  0  0
    9.5594   -1.7196    0.0000 C   0  0  0  0  0  0  0  0  0  0  0  0
    2.2224   -2.7400    0.0000 C   0  0  0  0  0  0  0  0  0  0  0  0
    2.8901    0.1849    0.0000 C   0  0  0  0  0  0  0  0  0  0  0  0
    1.1230   -1.7196    0.0000 C   0  0  0  0  0  0  0  0  0  0  0  0
    9.9914    2.2255    0.0000 C   0  0  0  0  0  0  0  0  0  0  0  0
   11.0909    3.2457    0.0000 C   0  0  0  0  0  0  0  0  0  0  0  0
   11.7585    0.3209    0.0000 C   0  0  0  0  0  0  0  0  0  0  0  0
    1.4568   -0.2573    0.0000 C   0  0  0  0  0  0  0  0  0  0  0  0
   12.5244    2.8035    0.0000 C   0  0  0  0  0  0  0  0  0  0  0  0
   12.8582    1.3411    0.0000 C   0  0  0  0  0  0  0  0  0  0  0  0
   -0.3105   -2.1618    0.0000 C   0  0  0  0  0  0  0  0  0  0  0  0
   13.6240    3.8239    0.0000 C   0  0  0  0  0  0  0  0  0  0  0  0
   -6.1422    1.4771    0.0000 C   0  0  0  0  0  0  0  0  0  0  0  0
   -1.4100   -1.1416    0.0000 C   0  0  0  0  0  0  0  0  0  0  0  0
   -3.9431   -0.5634    0.0000 C   0  0  0  0  0  0  0  0  0  0  0  0
   -4.7088    1.9193    0.0000 C   0  0  0  0  0  0  0  0  0  0  0  0
   -6.4761    0.0147    0.0000 C   0  0  0  0  0  0  0  0  0  0  0  0
   -3.6093    0.8989    0.0000 C   0  0  0  0  0  0  0  0  0  0  0  0
   -5.3764   -1.0056    0.0000 C   0  0  0  0  0  0  0  0  0  0  0  0
   13.2902    5.2863    0.0000 C   0  0  0  0  0  0  0  0  0  0  0  0
   -6.9081    3.9599    0.0000 C   0  0  0  0  0  0  0  0  0  0  0  0
   -8.6752    2.0553    0.0000 C   0  0  0  0  0  0  0  0  0  0  0  0
   11.8567    5.7285    0.0000 C   0  0  0  0  0  0  0  0  0  0  0  0
   -8.0077    4.9801    0.0000 C   0  0  0  0  0  0  0  0  0  0  0  0
   -9.7748    3.0755    0.0000 C   0  0  0  0  0  0  0  0  0  0  0  0
  1 14  2  0  0  0  0
  2 23  1  0  0  0  0
  2 40  1  0  0  0  0
  3 31  1  0  0  0  0
  3 32  1  0  0  0  0
  4 41  1  0  0  0  0
  4 42  1  0  0  0  0
  5  9  1  0  0  0  0
  5 11  1  0  0  0  0
  6 12  1  0  0  0  0
  6 14  1  0  0  0  0
  7 30  1  0  0  0  0
  7 38  1  0  0  0  0
  7 39  1  0  0  0  0
  8 37  3  0  0  0  0
  9 10  1  0  0  0  0
  9 15  2  0  0  0  0
 10 14  1  0  0  0  0
 10 17  2  0  0  0  0
 11 12  1  0  0  0  0
 11 20  2  0  0  0  0
 12 19  2  0  0  0  0
 13 15  1  0  0  0  0
 13 16  1  0  0  0  0
 13 18  2  0  0  0  0
 16 22  1  0  0  0  0
 16 24  2  0  0  0  0
 17 18  1  0  0  0  0
 19 21  1  0  0  0  0
 20 25  1  0  0  0  0
 21 25  2  0  0  0  0
 21 28  1  0  0  0  0
 22 23  2  0  0  0  0
 23 26  1  0  0  0  0
 24 27  1  0  0  0  0
 26 27  2  0  0  0  0
 26 29  1  0  0  0  0
 28 31  1  0  0  0  0
 29 37  1  0  0  0  0
 30 33  2  0  0  0  0
 30 34  1  0  0  0  0
 32 35  2  0  0  0  0
 32 36  1  0  0  0  0
 33 35  1  0  0  0  0
 34 36  2  0  0  0  0
 38 41  1  0  0  0  0
 39 42  1  0  0  0  0
M  END
> <Value>
5.899998417198648

> <Relation>
<

> <SourceURI>
mol:CHEMBL1985566

$$$$

Generated by Molecular Materials Informatics

 26 29  0  0  0  0  0  0  0  0999 V2000
   10.4566   -4.4426    0.0000 C   0  0  0  0  0  0  0  0  0  0  0  0
   11.9618   -4.3704    0.0000 N   0  0  0  0  0  0  0  0  0  0  0  0
   12.4910   -5.7740    0.0000 C   0  0  0  0  0  0  0  0  0  0  0  0
   11.3180   -6.7152    0.0000 C   0  0  0  0  0  0  0  0  0  0  0  0
   10.0679   -5.8965    0.0000 N   0  0  0  0  0  0  0  0  0  0  0  0
   10.2110  -10.5214    0.0000 C   0  0  0  0  0  0  0  0  0  0  0  0
   10.1390   -9.0246    0.0000 N   0  0  0  0  0  0  0  0  0  0  0  0
   11.3902   -8.2120    0.0000 C   0  0  0  0  0  0  0  0  0  0  0  0
   12.7303   -8.8963    0.0000 C   0  0  0  0  0  0  0  0  0  0  0  0
   12.8023  -10.3931    0.0000 C   0  0  0  0  0  0  0  0  0  0  0  0
   11.5429  -11.2139    0.0000 N   0  0  0  0  0  0  0  0  0  0  0  0
    8.9433  -11.3339    0.0000 O   0  0  0  0  0  0  0  0  0  0  0  0
    9.0154  -12.8391    0.0000 C   0  0  0  0  0  0  0  0  0  0  0  0
   13.9369   -6.1708    0.0000 C   0  0  0  0  0  0  0  0  0  0  0  0
   15.0023   -5.1095    0.0000 C   0  0  0  0  0  0  0  0  0  0  0  0
   16.4478   -5.5065    0.0000 C   0  0  0  0  0  0  0  0  0  0  0  0
   16.8363   -6.9568    0.0000 C   0  0  0  0  0  0  0  0  0  0  0  0
   15.7709   -8.0098    0.0000 C   0  0  0  0  0  0  0  0  0  0  0  0
   14.3171   -7.6211    0.0000 C   0  0  0  0  0  0  0  0  0  0  0  0
   18.2822   -7.3455    0.0000 F   0  0  0  0  0  0  0  0  0  0  0  0
    5.8575   -7.4931    0.0000 N   0  0  0  0  0  0  0  0  0  0  0  0
    6.0986   -6.0170    0.0000 C   0  0  0  0  0  0  0  0  0  0  0  0
    7.5023   -5.4794    0.0000 C   0  0  0  0  0  0  0  0  0  0  0  0
    8.6644   -6.4259    0.0000 C   0  0  0  0  0  0  0  0  0  0  0  0
    8.4231   -7.9102    0.0000 C   0  0  0  0  0  0  0  0  0  0  0  0
    7.0198   -8.4396    0.0000 C   0  0  0  0  0  0  0  0  0  0  0  0
  1  2  2  0  0  0  0
  2  3  1  0  0  0  0
  3  4  2  0  0  0  0
  4  5  1  0  0  0  0
  1  5  1  0  0  0  0
  6  7  1  0  0  0  0
  7  8  2  0  0  0  0
  8  9  1  0  0  0  0
  9 10  2  0  0  0  0
 10 11  1  0  0  0  0
  6 11  2  0  0  0  0
 12 13  1  0  0  0  0
  6 12  1  0  0  0  0
  4  8  1  0  0  0  0
 14 15  1  0  0  0  0
 15 16  2  0  0  0  0
 16 17  1  0  0  0  0
 17 18  2  0  0  0  0
 18 19  1  0  0  0  0
 14 19  2  0  0  0  0
 17 20  1  0  0  0  0
  3 14  1  0  0  0  0
 21 22  1  0  0  0  0
 22 23  1  0  0  0  0
 23 24  1  0  0  0  0
 24 25  1  0  0  0  0
 25 26  1  0  0  0  0
 21 26  1  0  0  0  0
  5 24  1  0  0  0  0
M  END
> <Value>
5.899998417198648

> <Relation>
<

> <SourceURI>
mol:CHEMBL95692

$$$$

Generated by Molecular Materials Informatics

 43 49  0  0  0  0  0  0  0  0999 V2000
    7.7868  -10.8182    0.0000 N   0  0  0  0  0  0  0  0  0  0  0  0
    9.1135  -10.1178    0.0000 C   0  0  0  0  0  0  0  0  0  0  0  0
    9.1702   -8.6187    0.0000 O   0  0  0  0  0  0  0  0  0  0  0  0
   10.3834  -10.9166    0.0000 C   0  0  0  0  0  0  0  0  0  0  0  0
   10.3264  -12.4155    0.0000 C   0  0  0  0  0  0  0  0  0  0  0  0
    8.9977  -13.1113    0.0000 C   0  0  0  0  0  0  0  0  0  0  0  0
    8.9375  -14.6037    0.0000 C   0  0  0  0  0  0  0  0  0  0  0  0
   10.2037  -15.4092    0.0000 C   0  0  0  0  0  0  0  0  0  0  0  0
   11.5337  -14.7112    0.0000 C   0  0  0  0  0  0  0  0  0  0  0  0
   11.5972  -13.2077    0.0000 C   0  0  0  0  0  0  0  0  0  0  0  0
    6.4880   -8.5778    0.0000 C   0  0  0  0  0  0  0  0  0  0  0  0
    5.1885   -7.8198    0.0000 C   0  0  0  0  0  0  0  0  0  0  0  0
    3.8862   -8.5658    0.0000 C   0  0  0  0  0  0  0  0  0  0  0  0
    3.8811  -10.0700    0.0000 C   0  0  0  0  0  0  0  0  0  0  0  0
    5.1891  -10.8246    0.0000 C   0  0  0  0  0  0  0  0  0  0  0  0
    6.4862  -10.0742    0.0000 C   0  0  0  0  0  0  0  0  0  0  0  0
    2.5840  -10.8209    0.0000 C   0  0  0  0  0  0  0  0  0  0  0  0
    1.2143  -10.2076    0.0000 C   0  0  0  0  0  0  0  0  0  0  0  0
    2.4247  -12.3126    0.0000 N   0  0  0  0  0  0  0  0  0  0  0  0
    0.9572  -12.6224    0.0000 C   0  0  0  0  0  0  0  0  0  0  0  0
    0.2083  -11.3260    0.0000 N   0  0  0  0  0  0  0  0  0  0  0  0
   -1.2559  -11.6377    0.0000 C   0  0  0  0  0  0  0  0  0  0  0  0
   -1.4121  -13.1266    0.0000 C   0  0  0  0  0  0  0  0  0  0  0  0
   -0.0445  -13.7350    0.0000 S   0  0  0  0  0  0  0  0  0  0  0  0
    1.1988   -8.7096    0.0000 C   0  0  0  0  0  0  0  0  0  0  0  0
    2.4938   -7.9487    0.0000 C   0  0  0  0  0  0  0  0  0  0  0  0
    2.4805   -6.4499    0.0000 C   0  0  0  0  0  0  0  0  0  0  0  0
   -0.1032   -7.9769    0.0000 N   0  0  0  0  0  0  0  0  0  0  0  0
   -0.1230   -6.4807    0.0000 C   0  0  0  0  0  0  0  0  0  0  0  0
    1.1756   -5.7037    0.0000 N   0  0  0  0  0  0  0  0  0  0  0  0
   -1.4327   -5.7496    0.0000 N   0  0  0  0  0  0  0  0  0  0  0  0
   -1.4543   -4.2497    0.0000 C   0  0  0  0  0  0  0  0  0  0  0  0
   -0.1665   -3.4906    0.0000 C   0  0  0  0  0  0  0  0  0  0  0  0
   -0.1876   -1.9922    0.0000 C   0  0  0  0  0  0  0  0  0  0  0  0
   -1.4983   -1.2593    0.0000 C   0  0  0  0  0  0  0  0  0  0  0  0
   -2.7907   -2.0362    0.0000 C   0  0  0  0  0  0  0  0  0  0  0  0
   -2.7634   -3.5321    0.0000 C   0  0  0  0  0  0  0  0  0  0  0  0
   -1.5218    0.2405    0.0000 N   0  0  0  0  0  0  0  0  0  0  0  0
   -0.2276    1.0016    0.0000 C   0  0  0  0  0  0  0  0  0  0  0  0
   -0.2474    2.4951    0.0000 C   0  0  0  0  0  0  0  0  0  0  0  0
   -1.5548    3.2317    0.0000 O   0  0  0  0  0  0  0  0  0  0  0  0
   -2.8456    2.4635    0.0000 C   0  0  0  0  0  0  0  0  0  0  0  0
   -2.8285    0.9586    0.0000 C   0  0  0  0  0  0  0  0  0  0  0  0
  1  2  1  0  0  0  0
  2  3  2  0  0  0  0
  2  4  1  0  0  0  0
  4  5  1  0  0  0  0
  5  6  1  0  0  0  0
  5 10  2  0  0  0  0
  6  7  2  0  0  0  0
  7  8  1  0  0  0  0
  8  9  2  0  0  0  0
  9 10  1  0  0  0  0
 19 17  1  0  0  0  0
 14 17  1  0  0  0  0
 20 21  1  0  0  0  0
 14 15  1  0  0  0  0
 12 13  1  0  0  0  0
 29 31  1  0  0  0  0
 15 16  2  0  0  0  0
 31 32  1  0  0  0  0
 16 11  1  0  0  0  0
 32 33  2  0  0  0  0
 17 18  2  0  0  0  0
 33 34  1  0  0  0  0
 21 22  1  0  0  0  0
 34 35  2  0  0  0  0
 22 23  2  0  0  0  0
 35 36  1  0  0  0  0
 23 24  1  0  0  0  0
 36 37  2  0  0  0  0
 37 32  1  0  0  0  0
 24 20  1  0  0  0  0
 35 38  1  0  0  0  0
 38 39  1  0  0  0  0
 11 12  2  0  0  0  0
 13 14  2  0  0  0  0
 25 26  2  0  0  0  0
 26 27  1  0  0  0  0
 38 43  1  0  0  0  0
 39 40  1  0  0  0  0
 40 41  1  0  0  0  0
 41 42  1  0  0  0  0
 42 43  1  0  0  0  0
 27 30  2  0  0  0  0
 18 21  1  0  0  0  0
 29 28  2  0  0  0  0
 28 25  1  0  0  0  0
 18 25  1  0  0  0  0
 29 30  1  0  0  0  0
 20 19  2  0  0  0  0
 16  1  1  0  0  0  0
M  END
> <Value>
5.899998417198648

> <Relation>
<

> <SourceURI>
mol:CHEMBL1090356

$$$$

Generated by Molecular Materials Informatics

 18 20  0  0  0  0  0  0  0  0999 V2000
   -0.8507    1.3593    0.0000 O   0  0  0  0  0  0  0  0  0  0  0  0
    1.8749    3.1458    0.0000 O   0  0  0  0  0  0  0  0  0  0  0  0
   -1.7323    0.1458    0.0000 N   0  0  0  0  0  0  0  0  0  0  0  0
    1.8749   -7.3541    0.0000 N   0  0  0  0  0  0  0  0  0  0  0  0
    0.5759   -0.6042    0.0000 C   0  0  0  0  0  0  0  0  0  0  0  0
    0.5759    0.8958    0.0000 C   0  0  0  0  0  0  0  0  0  0  0  0
    1.8749   -1.3542    0.0000 C   0  0  0  0  0  0  0  0  0  0  0  0
    1.8749    1.6458    0.0000 C   0  0  0  0  0  0  0  0  0  0  0  0
    1.8749   -2.8541    0.0000 C   0  0  0  0  0  0  0  0  0  0  0  0
   -0.8507   -1.0678    0.0000 C   0  0  0  0  0  0  0  0  0  0  0  0
    3.1740   -0.6042    0.0000 C   0  0  0  0  0  0  0  0  0  0  0  0
    3.1740    0.8958    0.0000 C   0  0  0  0  0  0  0  0  0  0  0  0
    3.1740   -3.6041    0.0000 C   0  0  0  0  0  0  0  0  0  0  0  0
    0.5759   -3.6041    0.0000 C   0  0  0  0  0  0  0  0  0  0  0  0
    3.1740   -5.1041    0.0000 C   0  0  0  0  0  0  0  0  0  0  0  0
    0.5759   -5.1041    0.0000 C   0  0  0  0  0  0  0  0  0  0  0  0
    1.8749   -5.8541    0.0000 C   0  0  0  0  0  0  0  0  0  0  0  0
    0.5759    3.8958    0.0000 C   0  0  0  0  0  0  0  0  0  0  0  0
  1  3  1  0  0  0  0
  1  6  1  0  0  0  0
  2  8  1  0  0  0  0
  2 18  1  0  0  0  0
  3 10  2  0  0  0  0
  4 17  1  0  0  0  0
  5  6  2  0  0  0  0
  5  7  1  0  0  0  0
  5 10  1  0  0  0  0
  6  8  1  0  0  0  0
  7  9  1  0  0  0  0
  7 11  2  0  0  0  0
  8 12  2  0  0  0  0
  9 13  2  0  0  0  0
  9 14  1  0  0  0  0
 11 12  1  0  0  0  0
 13 15  1  0  0  0  0
 14 16  2  0  0  0  0
 15 17  2  0  0  0  0
 16 17  1  0  0  0  0
M  END
> <Value>
4.100000018985305

> <Relation>
=

> <SourceURI>
mol:CHEMBL2002450

$$$$

Generated by Molecular Materials Informatics

 24 26  0  0  0  0  0  0  0  0999 V2000
    6.2028   -1.5563    0.0000 F   0  0  0  0  0  0  0  0  0  0  0  0
    5.6537    0.4927    0.0000 F   0  0  0  0  0  0  0  0  0  0  0  0
    4.1538   -2.1054    0.0000 F   0  0  0  0  0  0  0  0  0  0  0  0
   -2.8902   -2.3063    0.0000 O   0  0  0  0  0  0  0  0  0  0  0  0
   -0.2923    2.1936    0.0000 N   0  0  0  0  0  0  0  0  0  0  0  0
   -0.2923   -2.3063    0.0000 N   0  0  0  0  0  0  0  0  0  0  0  0
   -1.5913   -4.5562    0.0000 N   0  0  0  0  0  0  0  0  0  0  0  0
   -4.1892   -4.5562    0.0000 N   0  0  0  0  0  0  0  0  0  0  0  0
   -4.1892   -7.5561    0.0000 N   0  0  0  0  0  0  0  0  0  0  0  0
    1.0068   -0.0563    0.0000 C   0  0  0  0  0  0  0  0  0  0  0  0
    1.0068    1.4436    0.0000 C   0  0  0  0  0  0  0  0  0  0  0  0
    3.6047   -0.0563    0.0000 C   0  0  0  0  0  0  0  0  0  0  0  0
   -0.2923   -0.8063    0.0000 C   0  0  0  0  0  0  0  0  0  0  0  0
    2.3056   -0.8063    0.0000 C   0  0  0  0  0  0  0  0  0  0  0  0
    4.9037   -0.8063    0.0000 C   0  0  0  0  0  0  0  0  0  0  0  0
    2.3056    2.1936    0.0000 C   0  0  0  0  0  0  0  0  0  0  0  0
    3.6047    1.4436    0.0000 C   0  0  0  0  0  0  0  0  0  0  0  0
   -1.5913   -0.0563    0.0000 C   0  0  0  0  0  0  0  0  0  0  0  0
   -1.5913    1.4436    0.0000 C   0  0  0  0  0  0  0  0  0  0  0  0
   -1.5913   -3.0562    0.0000 C   0  0  0  0  0  0  0  0  0  0  0  0
   -2.8902   -5.3062    0.0000 C   0  0  0  0  0  0  0  0  0  0  0  0
   -2.8902   -6.8061    0.0000 C   0  0  0  0  0  0  0  0  0  0  0  0
   -5.4883   -5.3062    0.0000 C   0  0  0  0  0  0  0  0  0  0  0  0
   -5.4883   -6.8061    0.0000 C   0  0  0  0  0  0  0  0  0  0  0  0
  1 15  1  0  0  0  0
  2 15  1  0  0  0  0
  3 15  1  0  0  0  0
  4 20  2  0  0  0  0
  5 11  1  0  0  0  0
  5 19  2  0  0  0  0
  6 13  1  0  0  0  0
  6 20  1  0  0  0  0
  7 20  1  0  0  0  0
  7 21  1  0  0  0  0
  8 21  1  0  0  0  0
  8 23  2  0  0  0  0
  9 22  1  0  0  0  0
  9 24  2  0  0  0  0
 10 11  1  0  0  0  0
 10 13  1  0  0  0  0
 10 14  2  0  0  0  0
 11 16  2  0  0  0  0
 12 14  1  0  0  0  0
 12 15  1  0  0  0  0
 12 17  2  0  0  0  0
 13 18  2  0  0  0  0
 16 17  1  0  0  0  0
 18 19  1  0  0  0  0
 21 22  2  0  0  0  0
 23 24  1  0  0  0  0
M  END
> <Value>
5.899998417198648

> <Relation>
<

> <SourceURI>
mol:CHEMBL1976455

$$$$

Generated by Molecular Materials Informatics

 27 29  0  0  0  0  0  0  0  0999 V2000
    4.7090    2.4750    0.0000 C   0  0  0  0  0  0  0  0  0  0  0  0
    6.0081    1.7250    0.0000 O   0  0  0  0  0  0  0  0  0  0  0  0
    6.0081    0.2250    0.0000 C   0  0  0  0  0  0  0  0  0  0  0  0
    7.3070   -0.5250    0.0000 C   0  0  0  0  0  0  0  0  0  0  0  0
    7.3070   -2.0250    0.0000 C   0  0  0  0  0  0  0  0  0  0  0  0
    6.0081   -2.7750    0.0000 C   0  0  0  0  0  0  0  0  0  0  0  0
    6.0081   -4.2750    0.0000 C   0  0  0  0  0  0  0  0  0  0  0  0
    7.3070   -5.0250    0.0000 O   0  0  0  0  0  0  0  0  0  0  0  0
    7.3070   -6.5250    0.0000 C   0  0  0  0  0  0  0  0  0  0  0  0
    8.6061   -7.2750    0.0000 C   0  0  0  0  0  0  0  0  0  0  0  0
    8.6061   -8.7750    0.0000 C   0  0  0  0  0  0  0  0  0  0  0  0
    7.3070   -9.5250    0.0000 C   0  0  0  0  0  0  0  0  0  0  0  0
    7.3070  -11.0250    0.0000 C   0  0  0  0  0  0  0  0  0  0  0  0
    6.0081  -11.7750    0.0000 C   0  0  0  0  0  0  0  0  0  0  0  0
    6.0081  -13.2750    0.0000 C   0  0  0  0  0  0  0  0  0  0  0  0
    4.7090  -14.0250    0.0000 N   0  0  0  0  0  0  0  0  0  0  0  0
    3.4099  -13.2750    0.0000 C   0  0  0  0  0  0  0  0  0  0  0  0
    2.1110  -14.0250    0.0000 N   0  0  0  0  0  0  0  0  0  0  0  0
    3.4099  -11.7750    0.0000 N   0  0  0  0  0  0  0  0  0  0  0  0
    4.7090  -11.0250    0.0000 C   0  0  0  0  0  0  0  0  0  0  0  0
    4.7090   -9.5250    0.0000 N   0  0  0  0  0  0  0  0  0  0  0  0
    6.0081   -8.7750    0.0000 C   0  0  0  0  0  0  0  0  0  0  0  0
    6.0081   -7.2750    0.0000 C   0  0  0  0  0  0  0  0  0  0  0  0
    4.7090   -6.5250    0.0000 O   0  0  0  0  0  0  0  0  0  0  0  0
    4.7090   -5.0250    0.0000 C   0  0  0  0  0  0  0  0  0  0  0  0
    4.7090   -2.0250    0.0000 C   0  0  0  0  0  0  0  0  0  0  0  0
    4.7090   -0.5250    0.0000 C   0  0  0  0  0  0  0  0  0  0  0  0
  1  2  1  0  0  0  0
  2  3  1  0  0  0  0
  3  4  2  0  0  0  0
  4  5  1  0  0  0  0
  5  6  2  0  0  0  0
  6  7  1  0  0  0  0
  7  8  1  0  0  0  0
  8  9  1  0  0  0  0
  9 10  2  0  0  0  0
 10 11  1  0  0  0  0
 11 12  2  0  0  0  0
 12 13  1  0  0  0  0
 13 14  1  0  0  0  0
 14 15  2  0  0  0  0
 15 16  1  0  0  0  0
 16 17  2  0  0  0  0
 17 18  1  0  0  0  0
 17 19  1  0  0  0  0
 19 20  2  0  0  0  0
 14 20  1  0  0  0  0
 20 21  1  0  0  0  0
 12 22  1  0  0  0  0
 22 23  2  0  0  0  0
  9 23  1  0  0  0  0
 23 24  1  0  0  0  0
 24 25  1  0  0  0  0
  6 26  1  0  0  0  0
 26 27  2  0  0  0  0
  3 27  1  0  0  0  0
M  END
> <Value>
5.300000202445418

> <Relation>
<

> <SourceURI>
mol:CHEMBL261849

$$$$

Generated by Molecular Materials Informatics

 28 31  0  0  0  0  0  0  0  0999 V2000
    3.5173   -5.1888    0.0000 N   0  0  0  0  0  0  0  0  0  0  0  0
    2.2182   -2.9388    0.0000 N   0  0  0  0  0  0  0  0  0  0  0  0
   -0.3798   -2.9388    0.0000 N   0  0  0  0  0  0  0  0  0  0  0  0
   -1.6789   -5.1888    0.0000 N   0  0  0  0  0  0  0  0  0  0  0  0
   -0.4654   -7.5705    0.0000 N   0  0  0  0  0  0  0  0  0  0  0  0
    6.1153   -6.6888    0.0000 N   0  0  0  0  0  0  0  0  0  0  0  0
   -0.9289   -8.9970    0.0000 N   0  0  0  0  0  0  0  0  0  0  0  0
    2.2182   -4.4388    0.0000 C   0  0  0  0  0  0  0  0  0  0  0  0
   -0.3798   -4.4388    0.0000 C   0  0  0  0  0  0  0  0  0  0  0  0
    0.9191   -2.1888    0.0000 C   0  0  0  0  0  0  0  0  0  0  0  0
    0.9191   -5.1888    0.0000 C   0  0  0  0  0  0  0  0  0  0  0  0
   -1.6789   -6.6888    0.0000 C   0  0  0  0  0  0  0  0  0  0  0  0
    4.8164   -4.4388    0.0000 C   0  0  0  0  0  0  0  0  0  0  0  0
    3.5173   -6.6888    0.0000 C   0  0  0  0  0  0  0  0  0  0  0  0
    0.9191   -0.6888    0.0000 C   0  0  0  0  0  0  0  0  0  0  0  0
   -2.8923   -7.5705    0.0000 C   0  0  0  0  0  0  0  0  0  0  0  0
   -2.4289   -8.9970    0.0000 C   0  0  0  0  0  0  0  0  0  0  0  0
    6.1153   -5.1888    0.0000 C   0  0  0  0  0  0  0  0  0  0  0  0
    4.8164   -7.4388    0.0000 C   0  0  0  0  0  0  0  0  0  0  0  0
   -0.3798    0.0612    0.0000 C   0  0  0  0  0  0  0  0  0  0  0  0
   -0.3798    1.5612    0.0000 C   0  0  0  0  0  0  0  0  0  0  0  0
   -3.3105  -10.2107    0.0000 C   0  0  0  0  0  0  0  0  0  0  0  0
    7.4144   -7.4388    0.0000 C   0  0  0  0  0  0  0  0  0  0  0  0
   -1.6789    2.3112    0.0000 C   0  0  0  0  0  0  0  0  0  0  0  0
    0.9191    2.3112    0.0000 C   0  0  0  0  0  0  0  0  0  0  0  0
   -1.6789    3.8112    0.0000 C   0  0  0  0  0  0  0  0  0  0  0  0
    0.9191    3.8112    0.0000 C   0  0  0  0  0  0  0  0  0  0  0  0
   -0.3798    4.5612    0.0000 C   0  0  0  0  0  0  0  0  0  0  0  0
  1  8  1  0  0  0  0
  1 13  1  0  0  0  0
  1 14  1  0  0  0  0
  2  8  1  0  0  0  0
  2 10  2  0  0  0  0
  3  9  2  0  0  0  0
  3 10  1  0  0  0  0
  4  9  1  0  0  0  0
  4 12  1  0  0  0  0
  5  7  1  0  0  0  0
  5 12  2  0  0  0  0
  6 18  1  0  0  0  0
  6 19  1  0  0  0  0
  6 23  1  0  0  0  0
  7 17  1  0  0  0  0
  8 11  2  0  0  0  0
  9 11  1  0  0  0  0
 15 10  1  0  0  0  0
 12 16  1  0  0  0  0
 13 18  1  0  0  0  0
 14 19  1  0  0  0  0
 15 20  2  0  0  0  0
 16 17  2  0  0  0  0
 17 22  1  0  0  0  0
 20 21  1  0  0  0  0
 21 24  2  0  0  0  0
 21 25  1  0  0  0  0
 24 26  1  0  0  0  0
 25 27  2  0  0  0  0
 26 28  2  0  0  0  0
 27 28  1  0  0  0  0
M  END
> <Value>
7.700057099977233

> <Relation>
=

> <SourceURI>
mol:CHEMBL1983923

$$$$

Generated by Molecular Materials Informatics

 22 24  0  0  0  0  0  0  0  0999 V2000
    5.3591    0.1636    0.0000 F   0  0  0  0  0  0  0  0  0  0  0  0
   -2.0122   -3.7334    0.0000 O   0  0  0  0  0  0  0  0  0  0  0  0
    0.5483   -6.2940    0.0000 O   0  0  0  0  0  0  0  0  0  0  0  0
    0.5483   -1.1727    0.0000 N   0  0  0  0  0  0  0  0  0  0  0  0
    3.1091   -3.7334    0.0000 N   0  0  0  0  0  0  0  0  0  0  0  0
   -3.3488    1.0773    0.0000 N   0  0  0  0  0  0  0  0  0  0  0  0
    0.5483   -2.6727    0.0000 C   0  0  0  0  0  0  0  0  0  0  0  0
    1.6091   -3.7334    0.0000 C   0  0  0  0  0  0  0  0  0  0  0  0
   -0.5122   -3.7334    0.0000 C   0  0  0  0  0  0  0  0  0  0  0  0
    0.5483   -4.7940    0.0000 C   0  0  0  0  0  0  0  0  0  0  0  0
   -0.7506   -0.4227    0.0000 C   0  0  0  0  0  0  0  0  0  0  0  0
    3.8591   -2.4343    0.0000 C   0  0  0  0  0  0  0  0  0  0  0  0
    5.3591   -2.4343    0.0000 C   0  0  0  0  0  0  0  0  0  0  0  0
    6.1091   -1.1353    0.0000 C   0  0  0  0  0  0  0  0  0  0  0  0
   -0.7506    1.0773    0.0000 C   0  0  0  0  0  0  0  0  0  0  0  0
   -2.0497   -1.1727    0.0000 C   0  0  0  0  0  0  0  0  0  0  0  0
    6.1091   -3.7334    0.0000 C   0  0  0  0  0  0  0  0  0  0  0  0
    7.6091   -1.1353    0.0000 C   0  0  0  0  0  0  0  0  0  0  0  0
   -2.0497    1.8273    0.0000 C   0  0  0  0  0  0  0  0  0  0  0  0
   -3.3488   -0.4227    0.0000 C   0  0  0  0  0  0  0  0  0  0  0  0
    7.6091   -3.7334    0.0000 C   0  0  0  0  0  0  0  0  0  0  0  0
    8.3591   -2.4343    0.0000 C   0  0  0  0  0  0  0  0  0  0  0  0
  1 14  1  0  0  0  0
  2  9  2  0  0  0  0
  3 10  2  0  0  0  0
  4  7  1  0  0  0  0
  4 11  1  0  0  0  0
  5  8  1  0  0  0  0
  5 12  1  0  0  0  0
  6 19  2  0  0  0  0
  6 20  1  0  0  0  0
  7  8  2  0  0  0  0
  7  9  1  0  0  0  0
  8 10  1  0  0  0  0
  9 10  1  0  0  0  0
 11 15  2  0  0  0  0
 11 16  1  0  0  0  0
 12 13  1  0  0  0  0
 13 14  1  0  0  0  0
 13 17  2  0  0  0  0
 14 18  2  0  0  0  0
 15 19  1  0  0  0  0
 16 20  2  0  0  0  0
 17 21  1  0  0  0  0
 18 22  1  0  0  0  0
 21 22  2  0  0  0  0
M  END
> <Value>
7.199970640755866

> <Relation>
=

> <SourceURI>
mol:CHEMBL1982361

$$$$

Generated by Molecular Materials Informatics

 29 32  0  0  0  0  0  0  0  0999 V2000
   -0.7650    0.4983    0.0000 S   0  0  0  0  0  0  0  0  0  0  0  0
   -1.2285   -3.3554    0.0000 O   0  0  0  0  0  0  0  0  0  0  0  0
    5.9290    0.1746    0.0000 O   0  0  0  0  0  0  0  0  0  0  0  0
    0.6615    3.0348    0.0000 O   0  0  0  0  0  0  0  0  0  0  0  0
    3.2597    3.0348    0.0000 O   0  0  0  0  0  0  0  0  0  0  0  0
   -5.3885   -2.1710    0.0000 O   0  0  0  0  0  0  0  0  0  0  0  0
    0.6615   -1.4652    0.0000 N   0  0  0  0  0  0  0  0  0  0  0  0
    1.9606   -3.7152    0.0000 N   0  0  0  0  0  0  0  0  0  0  0  0
    5.8577   -2.9652    0.0000 N   0  0  0  0  0  0  0  0  0  0  0  0
    0.6615    0.0348    0.0000 C   0  0  0  0  0  0  0  0  0  0  0  0
    1.9606    0.7848    0.0000 C   0  0  0  0  0  0  0  0  0  0  0  0
    3.2597    0.0348    0.0000 C   0  0  0  0  0  0  0  0  0  0  0  0
    1.9606   -2.2152    0.0000 C   0  0  0  0  0  0  0  0  0  0  0  0
    3.2597   -1.4652    0.0000 C   0  0  0  0  0  0  0  0  0  0  0  0
   -0.7650   -1.9288    0.0000 C   0  0  0  0  0  0  0  0  0  0  0  0
   -1.6467   -0.7152    0.0000 C   0  0  0  0  0  0  0  0  0  0  0  0
    4.5586    0.7848    0.0000 C   0  0  0  0  0  0  0  0  0  0  0  0
    1.9606    2.2848    0.0000 C   0  0  0  0  0  0  0  0  0  0  0  0
    4.5586   -2.2152    0.0000 C   0  0  0  0  0  0  0  0  0  0  0  0
   -3.1467   -0.7152    0.0000 C   0  0  0  0  0  0  0  0  0  0  0  0
    4.7155    2.2764    0.0000 C   0  0  0  0  0  0  0  0  0  0  0  0
   -3.8967   -2.0143    0.0000 C   0  0  0  0  0  0  0  0  0  0  0  0
    6.9326    1.2893    0.0000 C   0  0  0  0  0  0  0  0  0  0  0  0
    6.1826    2.5884    0.0000 C   0  0  0  0  0  0  0  0  0  0  0  0
   -3.2867   -3.3847    0.0000 C   0  0  0  0  0  0  0  0  0  0  0  0
   -0.6376    2.2848    0.0000 C   0  0  0  0  0  0  0  0  0  0  0  0
   -5.7003   -3.6383    0.0000 C   0  0  0  0  0  0  0  0  0  0  0  0
   -4.4014   -4.3883    0.0000 C   0  0  0  0  0  0  0  0  0  0  0  0
   -1.9365    3.0348    0.0000 C   0  0  0  0  0  0  0  0  0  0  0  0
  1 10  1  0  0  0  0
  1 16  1  0  0  0  0
  2 15  2  0  0  0  0
  3 17  1  0  0  0  0
  3 23  1  0  0  0  0
  4 18  1  0  0  0  0
  4 26  1  0  0  0  0
  5 18  2  0  0  0  0
  6 22  1  0  0  0  0
  6 27  1  0  0  0  0
  7 10  1  0  0  0  0
  7 13  1  0  0  0  0
  7 15  1  0  0  0  0
  8 13  1  0  0  0  0
  9 19  3  0  0  0  0
 10 11  2  0  0  0  0
 11 12  1  0  0  0  0
 11 18  1  0  0  0  0
 12 14  1  0  0  0  0
 12 17  1  0  0  0  0
 13 14  2  0  0  0  0
 14 19  1  0  0  0  0
 15 16  1  0  0  0  0
 16 20  2  0  0  0  0
 17 21  2  0  0  0  0
 20 22  1  0  0  0  0
 21 24  1  0  0  0  0
 22 25  2  0  0  0  0
 23 24  2  0  0  0  0
 25 28  1  0  0  0  0
 26 29  1  0  0  0  0
 27 28  2  0  0  0  0
M  END
> <Value>
5.899998417198648

> <Relation>
<

> <SourceURI>
mol:CHEMBL1999112

$$$$

Generated by Molecular Materials Informatics

 30 33  0  0  0  0  0  0  0  0999 V2000
   -0.7376   -5.1178    0.0000 S   0  0  0  0  0  0  0  0  0  0  0  0
    5.8851   11.8458    0.0000 F   0  0  0  0  0  0  0  0  0  0  0  0
    7.3851   10.3458    0.0000 F   0  0  0  0  0  0  0  0  0  0  0  0
    4.3851   10.3458    0.0000 F   0  0  0  0  0  0  0  0  0  0  0  0
    8.4833    8.8458    0.0000 F   0  0  0  0  0  0  0  0  0  0  0  0
    4.5862    3.5958    0.0000 O   0  0  0  0  0  0  0  0  0  0  0  0
    3.2871    5.8458    0.0000 N   0  0  0  0  0  0  0  0  0  0  0  0
   -1.6193   -3.9041    0.0000 N   0  0  0  0  0  0  0  0  0  0  0  0
    1.9880    3.5958    0.0000 N   0  0  0  0  0  0  0  0  0  0  0  0
    0.6889   -3.1541    0.0000 C   0  0  0  0  0  0  0  0  0  0  0  0
    1.9880   -2.4041    0.0000 C   0  0  0  0  0  0  0  0  0  0  0  0
    5.8851    8.8458    0.0000 C   0  0  0  0  0  0  0  0  0  0  0  0
    0.6889   -4.6541    0.0000 C   0  0  0  0  0  0  0  0  0  0  0  0
    5.8851   10.3458    0.0000 C   0  0  0  0  0  0  0  0  0  0  0  0
    1.9880   -0.9041    0.0000 C   0  0  0  0  0  0  0  0  0  0  0  0
    7.1842    8.0958    0.0000 C   0  0  0  0  0  0  0  0  0  0  0  0
    4.5862    6.5958    0.0000 C   0  0  0  0  0  0  0  0  0  0  0  0
    4.5862    8.0958    0.0000 C   0  0  0  0  0  0  0  0  0  0  0  0
   -0.7376   -2.6907    0.0000 C   0  0  0  0  0  0  0  0  0  0  0  0
    3.2871   -3.1541    0.0000 C   0  0  0  0  0  0  0  0  0  0  0  0
    1.9880   -5.4041    0.0000 C   0  0  0  0  0  0  0  0  0  0  0  0
    7.1842    6.5958    0.0000 C   0  0  0  0  0  0  0  0  0  0  0  0
    5.8851    5.8458    0.0000 C   0  0  0  0  0  0  0  0  0  0  0  0
    0.6889   -0.1541    0.0000 C   0  0  0  0  0  0  0  0  0  0  0  0
    3.2871   -0.1541    0.0000 C   0  0  0  0  0  0  0  0  0  0  0  0
    1.9880    2.0959    0.0000 C   0  0  0  0  0  0  0  0  0  0  0  0
    3.2871   -4.6541    0.0000 C   0  0  0  0  0  0  0  0  0  0  0  0
    3.2871    4.3458    0.0000 C   0  0  0  0  0  0  0  0  0  0  0  0
    0.6889    1.3459    0.0000 C   0  0  0  0  0  0  0  0  0  0  0  0
    3.2871    1.3459    0.0000 C   0  0  0  0  0  0  0  0  0  0  0  0
  1  8  1  0  0  0  0
  1 13  1  0  0  0  0
  2 14  1  0  0  0  0
  3 14  1  0  0  0  0
  4 14  1  0  0  0  0
  5 16  1  0  0  0  0
  6 28  2  0  0  0  0
  7 17  1  0  0  0  0
  7 28  1  0  0  0  0
  8 19  2  0  0  0  0
  9 26  1  0  0  0  0
  9 28  1  0  0  0  0
 10 11  1  0  0  0  0
 10 13  2  0  0  0  0
 10 19  1  0  0  0  0
 11 15  1  0  0  0  0
 11 20  2  0  0  0  0
 12 14  1  0  0  0  0
 12 16  1  0  0  0  0
 12 18  2  0  0  0  0
 13 21  1  0  0  0  0
 15 24  2  0  0  0  0
 15 25  1  0  0  0  0
 16 22  2  0  0  0  0
 17 18  1  0  0  0  0
 17 23  2  0  0  0  0
 20 27  1  0  0  0  0
 21 27  2  0  0  0  0
 22 23  1  0  0  0  0
 24 29  1  0  0  0  0
 25 30  2  0  0  0  0
 26 29  2  0  0  0  0
 26 30  1  0  0  0  0
M  END
> <Value>
5.899998417198648

> <Relation>
<

> <SourceURI>
mol:CHEMBL2000801

$$$$

Generated by Molecular Materials Informatics

 26 29  0  0  0  0  0  0  0  0999 V2000
   -0.2088   -1.3721    0.0000 S   0  0  0  0  0  0  0  0  0  0  0  0
   -0.3404   -4.0557    0.0000 O   0  0  0  0  0  0  0  0  0  0  0  0
   -0.2088    1.0549    0.0000 N   0  0  0  0  0  0  0  0  0  0  0  0
   -2.5904   -0.1586    0.0000 N   0  0  0  0  0  0  0  0  0  0  0  0
    7.7128   -3.1585    0.0000 N   0  0  0  0  0  0  0  0  0  0  0  0
    1.2177   -0.9085    0.0000 C   0  0  0  0  0  0  0  0  0  0  0  0
    1.2177    0.5914    0.0000 C   0  0  0  0  0  0  0  0  0  0  0  0
   -1.0904   -0.1586    0.0000 C   0  0  0  0  0  0  0  0  0  0  0  0
    3.8158   -0.9085    0.0000 C   0  0  0  0  0  0  0  0  0  0  0  0
    2.5168   -1.6585    0.0000 C   0  0  0  0  0  0  0  0  0  0  0  0
    2.5168    1.3414    0.0000 C   0  0  0  0  0  0  0  0  0  0  0  0
    5.1147   -1.6585    0.0000 C   0  0  0  0  0  0  0  0  0  0  0  0
    3.8158    0.5914    0.0000 C   0  0  0  0  0  0  0  0  0  0  0  0
   -3.3403   -1.4576    0.0000 C   0  0  0  0  0  0  0  0  0  0  0  0
   -4.8403   -1.4576    0.0000 C   0  0  0  0  0  0  0  0  0  0  0  0
    5.1147   -3.1585    0.0000 C   0  0  0  0  0  0  0  0  0  0  0  0
    6.4137   -0.9085    0.0000 C   0  0  0  0  0  0  0  0  0  0  0  0
   -2.5904   -2.7567    0.0000 C   0  0  0  0  0  0  0  0  0  0  0  0
   -5.5903   -2.7567    0.0000 C   0  0  0  0  0  0  0  0  0  0  0  0
   -5.5903   -0.1586    0.0000 C   0  0  0  0  0  0  0  0  0  0  0  0
    6.4137   -3.9084    0.0000 C   0  0  0  0  0  0  0  0  0  0  0  0
    7.7128   -1.6585    0.0000 C   0  0  0  0  0  0  0  0  0  0  0  0
   -7.0902   -2.7567    0.0000 C   0  0  0  0  0  0  0  0  0  0  0  0
   -7.0902   -0.1586    0.0000 C   0  0  0  0  0  0  0  0  0  0  0  0
   -1.0904   -2.7567    0.0000 C   0  0  0  0  0  0  0  0  0  0  0  0
   -7.8402   -1.4576    0.0000 C   0  0  0  0  0  0  0  0  0  0  0  0
  1  6  1  0  0  0  0
  1  8  1  0  0  0  0
  2 25  1  0  0  0  0
  3  7  1  0  0  0  0
  3  8  2  0  0  0  0
  4  8  1  0  0  0  0
  4 14  1  0  0  0  0
  5 21  2  0  0  0  0
  5 22  1  0  0  0  0
  6  7  1  0  0  0  0
  6 10  2  0  0  0  0
  7 11  2  0  0  0  0
  9 10  1  0  0  0  0
  9 12  1  0  0  0  0
  9 13  2  0  0  0  0
 11 13  1  0  0  0  0
 12 16  2  0  0  0  0
 12 17  1  0  0  0  0
 14 15  1  0  0  0  0
 14 18  1  0  0  0  0
 15 19  2  0  0  0  0
 15 20  1  0  0  0  0
 16 21  1  0  0  0  0
 17 22  2  0  0  0  0
 18 25  1  0  0  0  0
 19 23  1  0  0  0  0
 20 24  2  0  0  0  0
 23 26  2  0  0  0  0
 24 26  1  0  0  0  0
M  END
> <Value>
5.899998417198648

> <Relation>
<

> <SourceURI>
mol:CHEMBL1982122

$$$$

Generated by Molecular Materials Informatics

 22 24  0  0  0  0  0  0  0  0999 V2000
    8.9221    0.1851    0.0000 S   0  0  0  0  0  0  0  0  0  0  0  0
   10.2212   -0.5649    0.0000 O   0  0  0  0  0  0  0  0  0  0  0  0
    9.6721    1.4840    0.0000 O   0  0  0  0  0  0  0  0  0  0  0  0
   -2.8966    0.6486    0.0000 N   0  0  0  0  0  0  0  0  0  0  0  0
   -3.7782   -0.5649    0.0000 N   0  0  0  0  0  0  0  0  0  0  0  0
    2.4270   -2.0648    0.0000 N   0  0  0  0  0  0  0  0  0  0  0  0
    7.6231    0.9351    0.0000 N   0  0  0  0  0  0  0  0  0  0  0  0
   -3.3600   -3.2050    0.0000 N   0  0  0  0  0  0  0  0  0  0  0  0
   -1.4701   -1.3149    0.0000 C   0  0  0  0  0  0  0  0  0  0  0  0
   -1.4701    0.1851    0.0000 C   0  0  0  0  0  0  0  0  0  0  0  0
   -2.8966   -1.7785    0.0000 C   0  0  0  0  0  0  0  0  0  0  0  0
    1.1281   -1.3149    0.0000 C   0  0  0  0  0  0  0  0  0  0  0  0
   -0.1710   -2.0648    0.0000 C   0  0  0  0  0  0  0  0  0  0  0  0
   -0.1710    0.9351    0.0000 C   0  0  0  0  0  0  0  0  0  0  0  0
    1.1281    0.1851    0.0000 C   0  0  0  0  0  0  0  0  0  0  0  0
    3.7260   -1.3149    0.0000 C   0  0  0  0  0  0  0  0  0  0  0  0
    6.3240    0.1851    0.0000 C   0  0  0  0  0  0  0  0  0  0  0  0
    3.7260    0.1851    0.0000 C   0  0  0  0  0  0  0  0  0  0  0  0
    5.0251   -2.0648    0.0000 C   0  0  0  0  0  0  0  0  0  0  0  0
    5.0251    0.9351    0.0000 C   0  0  0  0  0  0  0  0  0  0  0  0
    6.3240   -1.3149    0.0000 C   0  0  0  0  0  0  0  0  0  0  0  0
    8.1722   -1.1140    0.0000 C   0  0  0  0  0  0  0  0  0  0  0  0
  1  2  2  0  0  0  0
  1  3  2  0  0  0  0
  1  7  1  0  0  0  0
  1 22  1  0  0  0  0
  4  5  1  0  0  0  0
  4 10  1  0  0  0  0
  5 11  2  0  0  0  0
  6 12  1  0  0  0  0
  6 16  1  0  0  0  0
  7 17  1  0  0  0  0
  8 11  1  0  0  0  0
  9 10  1  0  0  0  0
  9 11  1  0  0  0  0
  9 13  2  0  0  0  0
 10 14  2  0  0  0  0
 12 13  1  0  0  0  0
 12 15  2  0  0  0  0
 14 15  1  0  0  0  0
 16 18  2  0  0  0  0
 16 19  1  0  0  0  0
 17 20  2  0  0  0  0
 17 21  1  0  0  0  0
 18 20  1  0  0  0  0
 19 21  2  0  0  0  0
M  END
> <Value>
5.300000202445418

> <Relation>
<

> <SourceURI>
mol:CHEMBL1988872

$$$$

Generated by Molecular Materials Informatics

 29 32  0  0  0  0  0  0  0  0999 V2000
   -6.1930    0.8023    0.0000 F   0  0  0  0  0  0  0  0  0  0  0  0
   -7.0345   -7.3652    0.0000 O   0  0  0  0  0  0  0  0  0  0  0  0
    2.1152    0.0523    0.0000 N   0  0  0  0  0  0  0  0  0  0  0  0
    0.6886    2.0157    0.0000 N   0  0  0  0  0  0  0  0  0  0  0  0
   -1.2421   -2.1497    0.0000 N   0  0  0  0  0  0  0  0  0  0  0  0
    4.7134    1.5523    0.0000 N   0  0  0  0  0  0  0  0  0  0  0  0
   -0.7019   -4.6910    0.0000 N   0  0  0  0  0  0  0  0  0  0  0  0
   -3.1728   -3.8883    0.0000 N   0  0  0  0  0  0  0  0  0  0  0  0
    0.6886   -0.4114    0.0000 C   0  0  0  0  0  0  0  0  0  0  0  0
   -0.1930    0.8023    0.0000 C   0  0  0  0  0  0  0  0  0  0  0  0
    2.1152    1.5523    0.0000 C   0  0  0  0  0  0  0  0  0  0  0  0
    0.2252   -1.8379    0.0000 C   0  0  0  0  0  0  0  0  0  0  0  0
   -1.6930    0.8023    0.0000 C   0  0  0  0  0  0  0  0  0  0  0  0
    3.4143   -0.6977    0.0000 C   0  0  0  0  0  0  0  0  0  0  0  0
    3.4143    2.3023    0.0000 C   0  0  0  0  0  0  0  0  0  0  0  0
    1.2288   -2.9526    0.0000 C   0  0  0  0  0  0  0  0  0  0  0  0
   -1.7057   -3.5764    0.0000 C   0  0  0  0  0  0  0  0  0  0  0  0
   -2.4430   -0.4968    0.0000 C   0  0  0  0  0  0  0  0  0  0  0  0
   -2.4430    2.1012    0.0000 C   0  0  0  0  0  0  0  0  0  0  0  0
    4.7134    0.0523    0.0000 C   0  0  0  0  0  0  0  0  0  0  0  0
    0.7652   -4.3792    0.0000 C   0  0  0  0  0  0  0  0  0  0  0  0
   -3.9430   -0.4968    0.0000 C   0  0  0  0  0  0  0  0  0  0  0  0
   -3.9430    2.1012    0.0000 C   0  0  0  0  0  0  0  0  0  0  0  0
   -4.6930    0.8023    0.0000 C   0  0  0  0  0  0  0  0  0  0  0  0
   -3.6365   -5.3148    0.0000 C   0  0  0  0  0  0  0  0  0  0  0  0
   -5.1036   -5.6266    0.0000 C   0  0  0  0  0  0  0  0  0  0  0  0
   -6.5708   -5.9386    0.0000 C   0  0  0  0  0  0  0  0  0  0  0  0
   -5.4156   -4.1595    0.0000 C   0  0  0  0  0  0  0  0  0  0  0  0
   -4.7917   -7.0939    0.0000 C   0  0  0  0  0  0  0  0  0  0  0  0
  1 24  1  0  0  0  0
  2 27  1  0  0  0  0
  3  9  1  0  0  0  0
  3 11  1  0  0  0  0
  3 14  1  0  0  0  0
  4 10  1  0  0  0  0
  4 11  2  0  0  0  0
  5 12  2  0  0  0  0
  5 17  1  0  0  0  0
  6 15  2  0  0  0  0
  6 20  1  0  0  0  0
  7 17  2  0  0  0  0
  7 21  1  0  0  0  0
  8 17  1  0  0  0  0
  8 25  1  0  0  0  0
  9 10  2  0  0  0  0
  9 12  1  0  0  0  0
 10 13  1  0  0  0  0
 11 15  1  0  0  0  0
 12 16  1  0  0  0  0
 13 18  2  0  0  0  0
 13 19  1  0  0  0  0
 14 20  2  0  0  0  0
 16 21  2  0  0  0  0
 18 22  1  0  0  0  0
 19 23  2  0  0  0  0
 22 24  2  0  0  0  0
 23 24  1  0  0  0  0
 25 26  1  0  0  0  0
 26 27  1  0  0  0  0
 26 28  1  0  0  0  0
 26 29  1  0  0  0  0
M  END
> <Value>
5.899998417198648

> <Relation>
<

> <SourceURI>
mol:CHEMBL1991395

$$$$

Generated by Molecular Materials Informatics

 30 33  0  0  0  0  0  0  0  0999 V2000
   -6.1930    0.4648    0.0000 F   0  0  0  0  0  0  0  0  0  0  0  0
   -7.0345   -7.7027    0.0000 O   0  0  0  0  0  0  0  0  0  0  0  0
    2.1152   -0.2852    0.0000 N   0  0  0  0  0  0  0  0  0  0  0  0
    0.6886    1.6782    0.0000 N   0  0  0  0  0  0  0  0  0  0  0  0
   -1.2421   -2.4872    0.0000 N   0  0  0  0  0  0  0  0  0  0  0  0
    4.7134    1.2148    0.0000 N   0  0  0  0  0  0  0  0  0  0  0  0
   -0.7019   -5.0285    0.0000 N   0  0  0  0  0  0  0  0  0  0  0  0
   -3.1728   -4.2258    0.0000 N   0  0  0  0  0  0  0  0  0  0  0  0
    0.6886   -0.7489    0.0000 C   0  0  0  0  0  0  0  0  0  0  0  0
   -0.1930    0.4648    0.0000 C   0  0  0  0  0  0  0  0  0  0  0  0
    2.1152    1.2148    0.0000 C   0  0  0  0  0  0  0  0  0  0  0  0
    0.2252   -2.1754    0.0000 C   0  0  0  0  0  0  0  0  0  0  0  0
   -1.6930    0.4648    0.0000 C   0  0  0  0  0  0  0  0  0  0  0  0
    3.4143    1.9648    0.0000 C   0  0  0  0  0  0  0  0  0  0  0  0
    3.4143   -1.0352    0.0000 C   0  0  0  0  0  0  0  0  0  0  0  0
    1.2288   -3.2901    0.0000 C   0  0  0  0  0  0  0  0  0  0  0  0
    4.7134   -0.2852    0.0000 C   0  0  0  0  0  0  0  0  0  0  0  0
   -2.4430   -0.8343    0.0000 C   0  0  0  0  0  0  0  0  0  0  0  0
   -2.4430    1.7637    0.0000 C   0  0  0  0  0  0  0  0  0  0  0  0
   -1.7057   -3.9139    0.0000 C   0  0  0  0  0  0  0  0  0  0  0  0
    0.7652   -4.7167    0.0000 C   0  0  0  0  0  0  0  0  0  0  0  0
    3.4143    3.4648    0.0000 C   0  0  0  0  0  0  0  0  0  0  0  0
   -3.9430   -0.8343    0.0000 C   0  0  0  0  0  0  0  0  0  0  0  0
   -3.9430    1.7637    0.0000 C   0  0  0  0  0  0  0  0  0  0  0  0
   -4.6930    0.4648    0.0000 C   0  0  0  0  0  0  0  0  0  0  0  0
   -3.6365   -5.6523    0.0000 C   0  0  0  0  0  0  0  0  0  0  0  0
   -5.1036   -5.9641    0.0000 C   0  0  0  0  0  0  0  0  0  0  0  0
   -6.5708   -6.2761    0.0000 C   0  0  0  0  0  0  0  0  0  0  0  0
   -5.4156   -4.4970    0.0000 C   0  0  0  0  0  0  0  0  0  0  0  0
   -4.7917   -7.4314    0.0000 C   0  0  0  0  0  0  0  0  0  0  0  0
  1 25  1  0  0  0  0
  2 28  1  0  0  0  0
  3  9  1  0  0  0  0
  3 11  1  0  0  0  0
  3 15  1  0  0  0  0
  4 10  1  0  0  0  0
  4 11  2  0  0  0  0
  5 12  1  0  0  0  0
  5 20  2  0  0  0  0
  6 14  2  0  0  0  0
  6 17  1  0  0  0  0
  7 20  1  0  0  0  0
  7 21  2  0  0  0  0
  8 20  1  0  0  0  0
  8 26  1  0  0  0  0
  9 10  2  0  0  0  0
  9 12  1  0  0  0  0
 10 13  1  0  0  0  0
 11 14  1  0  0  0  0
 12 16  2  0  0  0  0
 13 18  2  0  0  0  0
 13 19  1  0  0  0  0
 14 22  1  0  0  0  0
 15 17  2  0  0  0  0
 16 21  1  0  0  0  0
 18 23  1  0  0  0  0
 19 24  2  0  0  0  0
 23 25  2  0  0  0  0
 24 25  1  0  0  0  0
 26 27  1  0  0  0  0
 27 28  1  0  0  0  0
 27 29  1  0  0  0  0
 27 30  1  0  0  0  0
M  END
> <Value>
5.899998417198648

> <Relation>
<

> <SourceURI>
mol:CHEMBL1987648

$$$$

Generated by Molecular Materials Informatics

 30 33  0  0  0  0  0  0  0  0999 V2000
   -0.2923    3.1875    0.0000 O   0  0  0  0  0  0  0  0  0  0  0  0
   -4.1893    0.9375    0.0000 O   0  0  0  0  0  0  0  0  0  0  0  0
   -2.8903    3.1875    0.0000 O   0  0  0  0  0  0  0  0  0  0  0  0
   -0.2923   -7.3125    0.0000 O   0  0  0  0  0  0  0  0  0  0  0  0
   -0.2923   -1.3125    0.0000 N   0  0  0  0  0  0  0  0  0  0  0  0
    7.5019   -2.8125    0.0000 N   0  0  0  0  0  0  0  0  0  0  0  0
    1.0068   -0.5625    0.0000 C   0  0  0  0  0  0  0  0  0  0  0  0
    1.0068    0.9375    0.0000 C   0  0  0  0  0  0  0  0  0  0  0  0
   -0.2923    1.6875    0.0000 C   0  0  0  0  0  0  0  0  0  0  0  0
   -1.5913    0.9375    0.0000 C   0  0  0  0  0  0  0  0  0  0  0  0
   -0.2923   -2.8125    0.0000 C   0  0  0  0  0  0  0  0  0  0  0  0
   -1.5913   -0.5625    0.0000 C   0  0  0  0  0  0  0  0  0  0  0  0
    2.3057   -1.3125    0.0000 C   0  0  0  0  0  0  0  0  0  0  0  0
    3.6048   -0.5625    0.0000 C   0  0  0  0  0  0  0  0  0  0  0  0
    2.3057    1.6875    0.0000 C   0  0  0  0  0  0  0  0  0  0  0  0
    1.0068   -3.5625    0.0000 C   0  0  0  0  0  0  0  0  0  0  0  0
   -2.8903    1.6875    0.0000 C   0  0  0  0  0  0  0  0  0  0  0  0
    3.6048    0.9375    0.0000 C   0  0  0  0  0  0  0  0  0  0  0  0
   -1.5913   -3.5625    0.0000 C   0  0  0  0  0  0  0  0  0  0  0  0
    4.9039   -1.3125    0.0000 C   0  0  0  0  0  0  0  0  0  0  0  0
    1.0068   -5.0625    0.0000 C   0  0  0  0  0  0  0  0  0  0  0  0
   -0.2923   -5.8125    0.0000 C   0  0  0  0  0  0  0  0  0  0  0  0
   -1.5913   -5.0625    0.0000 C   0  0  0  0  0  0  0  0  0  0  0  0
    4.9039   -2.8125    0.0000 C   0  0  0  0  0  0  0  0  0  0  0  0
    6.2030   -0.5625    0.0000 C   0  0  0  0  0  0  0  0  0  0  0  0
    2.3057   -2.8125    0.0000 C   0  0  0  0  0  0  0  0  0  0  0  0
    6.2030   -3.5625    0.0000 C   0  0  0  0  0  0  0  0  0  0  0  0
    7.5019   -1.3125    0.0000 C   0  0  0  0  0  0  0  0  0  0  0  0
   -5.4884    1.6875    0.0000 C   0  0  0  0  0  0  0  0  0  0  0  0
   -6.7875    0.9375    0.0000 C   0  0  0  0  0  0  0  0  0  0  0  0
  1  9  2  0  0  0  0
  2 17  1  0  0  0  0
  2 29  1  0  0  0  0
  3 17  2  0  0  0  0
  4 22  1  0  0  0  0
  5  7  1  0  0  0  0
  5 11  1  0  0  0  0
  5 12  1  0  0  0  0
  6 27  2  0  0  0  0
  6 28  1  0  0  0  0
  7  8  1  0  0  0  0
  7 13  2  0  0  0  0
  8  9  1  0  0  0  0
  8 15  2  0  0  0  0
  9 10  1  0  0  0  0
 10 12  2  0  0  0  0
 10 17  1  0  0  0  0
 11 16  1  0  0  0  0
 11 19  2  0  0  0  0
 13 14  1  0  0  0  0
 14 18  2  0  0  0  0
 14 20  1  0  0  0  0
 15 18  1  0  0  0  0
 16 21  2  0  0  0  0
 16 26  1  0  0  0  0
 19 23  1  0  0  0  0
 20 24  2  0  0  0  0
 20 25  1  0  0  0  0
 21 22  1  0  0  0  0
 22 23  2  0  0  0  0
 24 27  1  0  0  0  0
 25 28  2  0  0  0  0
 29 30  1  0  0  0  0
M  END
> <Value>
5.899998417198648

> <Relation>
<

> <SourceURI>
mol:CHEMBL1996780

$$$$

Generated by Molecular Materials Informatics

 25 28  0  0  0  0  0  0  0  0999 V2000
    2.0782    4.3875    0.0000 O   0  0  0  0  0  0  0  0  0  0  0  0
   -0.5198   -3.1125    0.0000 N   0  0  0  0  0  0  0  0  0  0  0  0
   -3.2455   -2.8260    0.0000 N   0  0  0  0  0  0  0  0  0  0  0  0
    4.6763    4.3875    0.0000 N   0  0  0  0  0  0  0  0  0  0  0  0
    0.7791   -0.8625    0.0000 C   0  0  0  0  0  0  0  0  0  0  0  0
   -1.8189   -0.8625    0.0000 C   0  0  0  0  0  0  0  0  0  0  0  0
    2.0782   -0.1125    0.0000 C   0  0  0  0  0  0  0  0  0  0  0  0
   -1.8189   -2.3625    0.0000 C   0  0  0  0  0  0  0  0  0  0  0  0
   -0.5198   -0.1125    0.0000 C   0  0  0  0  0  0  0  0  0  0  0  0
    0.7791   -2.3625    0.0000 C   0  0  0  0  0  0  0  0  0  0  0  0
    3.3772    2.1375    0.0000 C   0  0  0  0  0  0  0  0  0  0  0  0
    2.0782    1.3875    0.0000 C   0  0  0  0  0  0  0  0  0  0  0  0
   -3.2455   -0.3990    0.0000 C   0  0  0  0  0  0  0  0  0  0  0  0
    3.3772   -0.8625    0.0000 C   0  0  0  0  0  0  0  0  0  0  0  0
    3.3772    3.6375    0.0000 C   0  0  0  0  0  0  0  0  0  0  0  0
   -4.1271   -1.6125    0.0000 C   0  0  0  0  0  0  0  0  0  0  0  0
    4.6763    1.3875    0.0000 C   0  0  0  0  0  0  0  0  0  0  0  0
    4.6763   -0.1125    0.0000 C   0  0  0  0  0  0  0  0  0  0  0  0
    4.6763    5.8875    0.0000 C   0  0  0  0  0  0  0  0  0  0  0  0
    5.9752    6.6375    0.0000 C   0  0  0  0  0  0  0  0  0  0  0  0
    5.9752    8.1375    0.0000 C   0  0  0  0  0  0  0  0  0  0  0  0
    7.2743    5.8875    0.0000 C   0  0  0  0  0  0  0  0  0  0  0  0
    7.2743    8.8875    0.0000 C   0  0  0  0  0  0  0  0  0  0  0  0
    8.5734    6.6375    0.0000 C   0  0  0  0  0  0  0  0  0  0  0  0
    8.5734    8.1375    0.0000 C   0  0  0  0  0  0  0  0  0  0  0  0
  1 15  2  0  0  0  0
  2  8  2  0  0  0  0
  2 10  1  0  0  0  0
  3  8  1  0  0  0  0
  3 16  1  0  0  0  0
  4 15  1  0  0  0  0
  4 19  1  0  0  0  0
  5  7  1  0  0  0  0
  5  9  1  0  0  0  0
  5 10  2  0  0  0  0
  6  8  1  0  0  0  0
  6  9  2  0  0  0  0
  6 13  1  0  0  0  0
  7 12  2  0  0  0  0
  7 14  1  0  0  0  0
 11 12  1  0  0  0  0
 11 15  1  0  0  0  0
 11 17  2  0  0  0  0
 13 16  2  0  0  0  0
 14 18  2  0  0  0  0
 17 18  1  0  0  0  0
 19 20  1  0  0  0  0
 20 21  2  0  0  0  0
 20 22  1  0  0  0  0
 21 23  1  0  0  0  0
 22 24  2  0  0  0  0
 23 25  2  0  0  0  0
 24 25  1  0  0  0  0
M  END
> <Value>
5.899998417198648

> <Relation>
<

> <SourceURI>
mol:CHEMBL1972142

$$$$

Generated by Molecular Materials Informatics

 32 36  0  0  0  0  0  0  0  0999 V2000
    0.7929    4.2725    0.0000 S   0  0  0  0  0  0  0  0  0  0  0  0
   -6.8535   -9.0762    0.0000 F   0  0  0  0  0  0  0  0  0  0  0  0
    4.2685    8.3673    0.0000 O   0  0  0  0  0  0  0  0  0  0  0  0
   -3.5322   -3.0580    0.0000 O   0  0  0  0  0  0  0  0  0  0  0  0
    4.8176    2.3089    0.0000 N   0  0  0  0  0  0  0  0  0  0  0  0
    3.5185    0.0589    0.0000 N   0  0  0  0  0  0  0  0  0  0  0  0
   -1.0613   -3.8609    0.0000 N   0  0  0  0  0  0  0  0  0  0  0  0
   -2.9920   -5.5993    0.0000 N   0  0  0  0  0  0  0  0  0  0  0  0
    2.2195    2.3089    0.0000 C   0  0  0  0  0  0  0  0  0  0  0  0
    2.2195    3.8089    0.0000 C   0  0  0  0  0  0  0  0  0  0  0  0
    0.7929    1.8455    0.0000 C   0  0  0  0  0  0  0  0  0  0  0  0
    3.5185    4.5589    0.0000 C   0  0  0  0  0  0  0  0  0  0  0  0
    3.5185    1.5589    0.0000 C   0  0  0  0  0  0  0  0  0  0  0  0
    0.3295    0.4189    0.0000 C   0  0  0  0  0  0  0  0  0  0  0  0
   -0.0887    3.0589    0.0000 C   0  0  0  0  0  0  0  0  0  0  0  0
    3.5185    6.0589    0.0000 C   0  0  0  0  0  0  0  0  0  0  0  0
    4.8176    3.8089    0.0000 C   0  0  0  0  0  0  0  0  0  0  0  0
    1.3331   -0.6958    0.0000 C   0  0  0  0  0  0  0  0  0  0  0  0
   -1.1378    0.1071    0.0000 C   0  0  0  0  0  0  0  0  0  0  0  0
    4.7320    6.9407    0.0000 C   0  0  0  0  0  0  0  0  0  0  0  0
    2.3049    6.9407    0.0000 C   0  0  0  0  0  0  0  0  0  0  0  0
   -0.5976   -2.4344    0.0000 C   0  0  0  0  0  0  0  0  0  0  0  0
    0.8695   -2.1224    0.0000 C   0  0  0  0  0  0  0  0  0  0  0  0
   -1.6015   -1.3196    0.0000 C   0  0  0  0  0  0  0  0  0  0  0  0
    2.7685    8.3673    0.0000 C   0  0  0  0  0  0  0  0  0  0  0  0
   -2.5284   -4.1727    0.0000 C   0  0  0  0  0  0  0  0  0  0  0  0
   -4.4591   -5.9113    0.0000 C   0  0  0  0  0  0  0  0  0  0  0  0
   -4.9227   -7.3378    0.0000 C   0  0  0  0  0  0  0  0  0  0  0  0
   -6.3900   -7.6496    0.0000 C   0  0  0  0  0  0  0  0  0  0  0  0
   -5.4629   -4.7965    0.0000 C   0  0  0  0  0  0  0  0  0  0  0  0
   -7.3936   -6.5349    0.0000 C   0  0  0  0  0  0  0  0  0  0  0  0
   -6.9302   -5.1084    0.0000 C   0  0  0  0  0  0  0  0  0  0  0  0
  1 10  1  0  0  0  0
  1 15  1  0  0  0  0
  2 29  1  0  0  0  0
  3 20  1  0  0  0  0
  3 25  1  0  0  0  0
  4 26  2  0  0  0  0
  5 13  2  0  0  0  0
  5 17  1  0  0  0  0
  6 13  1  0  0  0  0
  7 22  1  0  0  0  0
  7 26  1  0  0  0  0
  8 26  1  0  0  0  0
  8 27  1  0  0  0  0
  9 10  2  0  0  0  0
  9 11  1  0  0  0  0
  9 13  1  0  0  0  0
 10 12  1  0  0  0  0
 11 14  1  0  0  0  0
 11 15  2  0  0  0  0
 12 16  1  0  0  0  0
 12 17  2  0  0  0  0
 14 18  2  0  0  0  0
 14 19  1  0  0  0  0
 16 20  2  0  0  0  0
 16 21  1  0  0  0  0
 18 23  1  0  0  0  0
 19 24  2  0  0  0  0
 21 25  2  0  0  0  0
 22 23  2  0  0  0  0
 22 24  1  0  0  0  0
 27 28  1  0  0  0  0
 27 30  2  0  0  0  0
 28 29  2  0  0  0  0
 29 31  1  0  0  0  0
 30 32  1  0  0  0  0
 31 32  2  0  0  0  0
M  END
> <Value>
5.899998417198648

> <Relation>
<

> <SourceURI>
mol:CHEMBL1966514

$$$$

Generated by Molecular Materials Informatics

 27 27  0  0  0  0  0  0  0  0999 V2000
   -4.1892    0.7500    0.0000 O   0  0  0  0  0  0  0  0  0  0  0  0
   -6.7873    2.2499    0.0000 N   0  0  0  0  0  0  0  0  0  0  0  0
   -9.3852   -2.2499    0.0000 N   0  0  0  0  0  0  0  0  0  0  0  0
   -9.3852    2.2499    0.0000 N   0  0  0  0  0  0  0  0  0  0  0  0
   -8.0862    4.4999    0.0000 N   0  0  0  0  0  0  0  0  0  0  0  0
  -10.6843   -4.4999    0.0000 N   0  0  0  0  0  0  0  0  0  0  0  0
   -8.0862   -4.4999    0.0000 N   0  0  0  0  0  0  0  0  0  0  0  0
   -6.7873    0.7500    0.0000 C   0  0  0  0  0  0  0  0  0  0  0  0
   -5.4883    0.0000    0.0000 C   0  0  0  0  0  0  0  0  0  0  0  0
   -8.0862   -1.5000    0.0000 C   0  0  0  0  0  0  0  0  0  0  0  0
   -8.0862    0.0000    0.0000 C   0  0  0  0  0  0  0  0  0  0  0  0
   -5.4883   -1.5000    0.0000 C   0  0  0  0  0  0  0  0  0  0  0  0
   -6.7873   -2.2499    0.0000 C   0  0  0  0  0  0  0  0  0  0  0  0
   -8.0862    2.9999    0.0000 C   0  0  0  0  0  0  0  0  0  0  0  0
   -9.3852   -3.7499    0.0000 C   0  0  0  0  0  0  0  0  0  0  0  0
   -2.8902    0.0000    0.0000 C   0  0  0  0  0  0  0  0  0  0  0  0
   -1.5913    0.7500    0.0000 C   0  0  0  0  0  0  0  0  0  0  0  0
   -0.2922    0.0000    0.0000 C   0  0  0  0  0  0  0  0  0  0  0  0
    1.0068    0.7500    0.0000 C   0  0  0  0  0  0  0  0  0  0  0  0
    2.3057    0.0000    0.0000 C   0  0  0  0  0  0  0  0  0  0  0  0
    3.6047    0.7500    0.0000 C   0  0  0  0  0  0  0  0  0  0  0  0
    4.9038    0.0000    0.0000 C   0  0  0  0  0  0  0  0  0  0  0  0
    6.2028    0.7500    0.0000 C   0  0  0  0  0  0  0  0  0  0  0  0
    7.5017    0.0000    0.0000 C   0  0  0  0  0  0  0  0  0  0  0  0
    8.8008    0.7500    0.0000 C   0  0  0  0  0  0  0  0  0  0  0  0
   10.0998    0.0000    0.0000 C   0  0  0  0  0  0  0  0  0  0  0  0
   11.3987    0.7500    0.0000 C   0  0  0  0  0  0  0  0  0  0  0  0
  1  9  1  0  0  0  0
  1 16  1  0  0  0  0
  2  8  1  0  0  0  0
  2 14  1  0  0  0  0
  3 10  1  0  0  0  0
  3 15  1  0  0  0  0
  4 14  2  0  0  0  0
  5 14  1  0  0  0  0
  6 15  2  0  0  0  0
  7 15  1  0  0  0  0
  8  9  1  0  0  0  0
  8 11  2  0  0  0  0
  9 12  2  0  0  0  0
 10 11  1  0  0  0  0
 10 13  2  0  0  0  0
 12 13  1  0  0  0  0
 16 17  1  0  0  0  0
 17 18  1  0  0  0  0
 18 19  1  0  0  0  0
 19 20  1  0  0  0  0
 20 21  1  0  0  0  0
 21 22  1  0  0  0  0
 22 23  1  0  0  0  0
 23 24  1  0  0  0  0
 24 25  1  0  0  0  0
 25 26  1  0  0  0  0
 26 27  1  0  0  0  0
M  END
> <Value>
6.499996931948306

> <Relation>
=

> <SourceURI>
mol:CHEMBL1980715

$$$$

Generated by Molecular Materials Informatics

 31 35  0  0  0  0  0  0  0  0999 V2000
   -2.8206   -7.2622    0.0000 F   0  0  0  0  0  0  0  0  0  0  0  0
   -4.9048   -1.0649    0.0000 O   0  0  0  0  0  0  0  0  0  0  0  0
   -1.9703    1.9858    0.0000 N   0  0  0  0  0  0  0  0  0  0  0  0
   -2.8519    0.7724    0.0000 N   0  0  0  0  0  0  0  0  0  0  0  0
   -2.4337   -1.8678    0.0000 N   0  0  0  0  0  0  0  0  0  0  0  0
    5.7272   -1.2323    0.0000 N   0  0  0  0  0  0  0  0  0  0  0  0
    3.5101   -2.2194    0.0000 N   0  0  0  0  0  0  0  0  0  0  0  0
    4.9772   -2.5314    0.0000 N   0  0  0  0  0  0  0  0  0  0  0  0
   -0.5438    0.0224    0.0000 C   0  0  0  0  0  0  0  0  0  0  0  0
   -0.5438    1.5223    0.0000 C   0  0  0  0  0  0  0  0  0  0  0  0
   -1.9703   -0.4413    0.0000 C   0  0  0  0  0  0  0  0  0  0  0  0
    2.0544    0.0224    0.0000 C   0  0  0  0  0  0  0  0  0  0  0  0
    0.7553   -0.7276    0.0000 C   0  0  0  0  0  0  0  0  0  0  0  0
    3.3532   -0.7276    0.0000 C   0  0  0  0  0  0  0  0  0  0  0  0
    0.7553    2.2723    0.0000 C   0  0  0  0  0  0  0  0  0  0  0  0
    2.0544    1.5223    0.0000 C   0  0  0  0  0  0  0  0  0  0  0  0
    4.7236   -0.1176    0.0000 C   0  0  0  0  0  0  0  0  0  0  0  0
   -3.9010   -2.1796    0.0000 C   0  0  0  0  0  0  0  0  0  0  0  0
   -4.3646   -3.6063    0.0000 C   0  0  0  0  0  0  0  0  0  0  0  0
    7.2190   -1.0754    0.0000 C   0  0  0  0  0  0  0  0  0  0  0  0
   -3.3608   -4.7208    0.0000 C   0  0  0  0  0  0  0  0  0  0  0  0
    8.1006   -2.2890    0.0000 C   0  0  0  0  0  0  0  0  0  0  0  0
   -5.8317   -3.9181    0.0000 C   0  0  0  0  0  0  0  0  0  0  0  0
   -3.8244   -6.1475    0.0000 C   0  0  0  0  0  0  0  0  0  0  0  0
   -6.2953   -5.3446    0.0000 C   0  0  0  0  0  0  0  0  0  0  0  0
   -5.2915   -6.4593    0.0000 C   0  0  0  0  0  0  0  0  0  0  0  0
    9.5924   -2.1321    0.0000 C   0  0  0  0  0  0  0  0  0  0  0  0
    7.4906   -3.6594    0.0000 C   0  0  0  0  0  0  0  0  0  0  0  0
   10.4740   -3.3458    0.0000 C   0  0  0  0  0  0  0  0  0  0  0  0
    8.3722   -4.8728    0.0000 C   0  0  0  0  0  0  0  0  0  0  0  0
    9.8640   -4.7161    0.0000 C   0  0  0  0  0  0  0  0  0  0  0  0
  1 24  1  0  0  0  0
  2 18  2  0  0  0  0
  3  4  1  0  0  0  0
  3 10  1  0  0  0  0
  4 11  2  0  0  0  0
  5 11  1  0  0  0  0
  5 18  1  0  0  0  0
  6  8  1  0  0  0  0
  6 17  1  0  0  0  0
  6 20  1  0  0  0  0
  7  8  2  0  0  0  0
  7 14  1  0  0  0  0
  9 10  1  0  0  0  0
  9 11  1  0  0  0  0
  9 13  2  0  0  0  0
 10 15  2  0  0  0  0
 12 13  1  0  0  0  0
 12 14  1  0  0  0  0
 12 16  2  0  0  0  0
 14 17  2  0  0  0  0
 15 16  1  0  0  0  0
 18 19  1  0  0  0  0
 19 21  2  0  0  0  0
 19 23  1  0  0  0  0
 20 22  1  0  0  0  0
 21 24  1  0  0  0  0
 22 27  2  0  0  0  0
 22 28  1  0  0  0  0
 23 25  2  0  0  0  0
 24 26  2  0  0  0  0
 25 26  1  0  0  0  0
 27 29  1  0  0  0  0
 28 30  2  0  0  0  0
 29 31  2  0  0  0  0
 30 31  1  0  0  0  0
M  END
> <Value>
7.299988937677887

> <Relation>
=

> <SourceURI>
mol:CHEMBL2003638

$$$$

Generated by Molecular Materials Informatics

 23 26  0  0  0  0  0  0  0  0999 V2000
   -2.9879   -2.0360    0.0000 S   0  0  0  0  0  0  0  0  0  0  0  0
   -1.0977   -0.1460    0.0000 N   0  0  0  0  0  0  0  0  0  0  0  0
   -1.0977    2.2811    0.0000 N   0  0  0  0  0  0  0  0  0  0  0  0
   -0.6796   -2.7860    0.0000 N   0  0  0  0  0  0  0  0  0  0  0  0
   -3.4794    1.0677    0.0000 N   0  0  0  0  0  0  0  0  0  0  0  0
    5.5250   -1.1823    0.0000 N   0  0  0  0  0  0  0  0  0  0  0  0
    0.3288    0.3177    0.0000 C   0  0  0  0  0  0  0  0  0  0  0  0
   -1.5612   -1.5725    0.0000 C   0  0  0  0  0  0  0  0  0  0  0  0
    0.3288    1.8177    0.0000 C   0  0  0  0  0  0  0  0  0  0  0  0
   -1.9794    1.0677    0.0000 C   0  0  0  0  0  0  0  0  0  0  0  0
    1.6279   -0.4323    0.0000 C   0  0  0  0  0  0  0  0  0  0  0  0
   -1.5612   -3.9996    0.0000 C   0  0  0  0  0  0  0  0  0  0  0  0
    1.6279    2.5677    0.0000 C   0  0  0  0  0  0  0  0  0  0  0  0
    2.9270    0.3177    0.0000 C   0  0  0  0  0  0  0  0  0  0  0  0
   -2.9879   -3.5360    0.0000 C   0  0  0  0  0  0  0  0  0  0  0  0
   -1.0977   -5.4262    0.0000 C   0  0  0  0  0  0  0  0  0  0  0  0
    2.9270    1.8177    0.0000 C   0  0  0  0  0  0  0  0  0  0  0  0
    4.2259   -0.4323    0.0000 C   0  0  0  0  0  0  0  0  0  0  0  0
    0.3695   -5.7380    0.0000 C   0  0  0  0  0  0  0  0  0  0  0  0
   -2.1014   -6.5409    0.0000 C   0  0  0  0  0  0  0  0  0  0  0  0
    0.8330   -7.1647    0.0000 C   0  0  0  0  0  0  0  0  0  0  0  0
   -1.6379   -7.9674    0.0000 C   0  0  0  0  0  0  0  0  0  0  0  0
   -0.1707   -8.2793    0.0000 C   0  0  0  0  0  0  0  0  0  0  0  0
  1  8  1  0  0  0  0
  1 15  1  0  0  0  0
  2  7  1  0  0  0  0
  2  8  1  0  0  0  0
  2 10  1  0  0  0  0
  3  9  1  0  0  0  0
  3 10  2  0  0  0  0
  4  8  2  0  0  0  0
  4 12  1  0  0  0  0
  5 10  1  0  0  0  0
  6 18  3  0  0  0  0
  7  9  1  0  0  0  0
  7 11  2  0  0  0  0
  9 13  2  0  0  0  0
 11 14  1  0  0  0  0
 12 15  2  0  0  0  0
 12 16  1  0  0  0  0
 13 17  1  0  0  0  0
 14 17  2  0  0  0  0
 14 18  1  0  0  0  0
 16 19  2  0  0  0  0
 16 20  1  0  0  0  0
 19 21  1  0  0  0  0
 20 22  2  0  0  0  0
 21 23  2  0  0  0  0
 22 23  1  0  0  0  0
M  END
> <Value>
5.899998417198648

> <Relation>
<

> <SourceURI>
mol:CHEMBL1996066

$$$$

Generated by Molecular Materials Informatics

 26 29  0  0  0  0  0  0  0  0999 V2000
   13.2413    1.2791    0.0000 F   0  0  0  0  0  0  0  0  0  0  0  0
    6.7462   -0.9708    0.0000 O   0  0  0  0  0  0  0  0  0  0  0  0
   -3.7733    0.8157    0.0000 N   0  0  0  0  0  0  0  0  0  0  0  0
   -4.6549    2.0291    0.0000 N   0  0  0  0  0  0  0  0  0  0  0  0
    5.4472    1.2791    0.0000 N   0  0  0  0  0  0  0  0  0  0  0  0
    8.0453    1.2791    0.0000 N   0  0  0  0  0  0  0  0  0  0  0  0
    0.2513    1.2791    0.0000 C   0  0  0  0  0  0  0  0  0  0  0  0
   -2.3468    1.2791    0.0000 C   0  0  0  0  0  0  0  0  0  0  0  0
   -2.3468    2.7791    0.0000 C   0  0  0  0  0  0  0  0  0  0  0  0
    1.5502    0.5292    0.0000 C   0  0  0  0  0  0  0  0  0  0  0  0
   -1.0477    0.5292    0.0000 C   0  0  0  0  0  0  0  0  0  0  0  0
    0.2513    2.7791    0.0000 C   0  0  0  0  0  0  0  0  0  0  0  0
   -1.0477    3.5291    0.0000 C   0  0  0  0  0  0  0  0  0  0  0  0
    2.8492    1.2791    0.0000 C   0  0  0  0  0  0  0  0  0  0  0  0
    4.1483    0.5292    0.0000 C   0  0  0  0  0  0  0  0  0  0  0  0
   -3.7733    3.2427    0.0000 C   0  0  0  0  0  0  0  0  0  0  0  0
    1.5502   -0.9708    0.0000 C   0  0  0  0  0  0  0  0  0  0  0  0
    4.1483   -0.9708    0.0000 C   0  0  0  0  0  0  0  0  0  0  0  0
    6.7462    0.5292    0.0000 C   0  0  0  0  0  0  0  0  0  0  0  0
    2.8492   -1.7208    0.0000 C   0  0  0  0  0  0  0  0  0  0  0  0
    9.3443    0.5292    0.0000 C   0  0  0  0  0  0  0  0  0  0  0  0
   10.6432    1.2791    0.0000 C   0  0  0  0  0  0  0  0  0  0  0  0
   11.9422    0.5292    0.0000 C   0  0  0  0  0  0  0  0  0  0  0  0
    9.3443   -0.9708    0.0000 C   0  0  0  0  0  0  0  0  0  0  0  0
   11.9422   -0.9708    0.0000 C   0  0  0  0  0  0  0  0  0  0  0  0
   10.6432   -1.7208    0.0000 C   0  0  0  0  0  0  0  0  0  0  0  0
  1 23  1  0  0  0  0
  2 19  2  0  0  0  0
  3  4  1  0  0  0  0
  3  8  1  0  0  0  0
  4 16  2  0  0  0  0
  5 15  1  0  0  0  0
  5 19  1  0  0  0  0
  6 19  1  0  0  0  0
  6 21  1  0  0  0  0
  7 10  1  0  0  0  0
  7 11  1  0  0  0  0
  7 12  2  0  0  0  0
  8  9  1  0  0  0  0
  8 11  2  0  0  0  0
  9 13  2  0  0  0  0
  9 16  1  0  0  0  0
 10 14  2  0  0  0  0
 10 17  1  0  0  0  0
 12 13  1  0  0  0  0
 14 15  1  0  0  0  0
 15 18  2  0  0  0  0
 17 20  2  0  0  0  0
 18 20  1  0  0  0  0
 21 22  2  0  0  0  0
 21 24  1  0  0  0  0
 22 23  1  0  0  0  0
 23 25  2  0  0  0  0
 24 26  2  0  0  0  0
 25 26  1  0  0  0  0
M  END
> <Value>
5.300000202445418

> <Relation>
<

> <SourceURI>
mol:CHEMBL1983393

$$$$

Generated by Molecular Materials Informatics

 29 33  0  0  0  0  0  0  0  0999 V2000
   -7.0342   -5.8625    0.0000 S   0  0  0  0  0  0  0  0  0  0  0  0
   -2.0580   -3.3894    0.0000 O   0  0  0  0  0  0  0  0  0  0  0  0
    1.8035    2.5146    0.0000 N   0  0  0  0  0  0  0  0  0  0  0  0
  -10.8745   -7.1527    0.0000 N   0  0  0  0  0  0  0  0  0  0  0  0
   -1.9814   -7.3572    0.0000 N   0  0  0  0  0  0  0  0  0  0  0  0
   -1.1311   -0.5361    0.0000 N   0  0  0  0  0  0  0  0  0  0  0  0
   -5.9196   -6.8663    0.0000 C   0  0  0  0  0  0  0  0  0  0  0  0
   -8.3332   -6.6125    0.0000 C   0  0  0  0  0  0  0  0  0  0  0  0
   -8.0214   -8.0798    0.0000 C   0  0  0  0  0  0  0  0  0  0  0  0
   -4.4523   -6.5543    0.0000 C   0  0  0  0  0  0  0  0  0  0  0  0
   -6.5296   -8.2367    0.0000 C   0  0  0  0  0  0  0  0  0  0  0  0
    3.2300    0.5511    0.0000 C   0  0  0  0  0  0  0  0  0  0  0  0
    1.8035    0.0875    0.0000 C   0  0  0  0  0  0  0  0  0  0  0  0
    3.2300    2.0511    0.0000 C   0  0  0  0  0  0  0  0  0  0  0  0
   -3.9887   -5.1278    0.0000 C   0  0  0  0  0  0  0  0  0  0  0  0
   -2.5216   -4.8160    0.0000 C   0  0  0  0  0  0  0  0  0  0  0  0
   -9.7598   -6.1491    0.0000 C   0  0  0  0  0  0  0  0  0  0  0  0
   -9.1362   -9.0834    0.0000 C   0  0  0  0  0  0  0  0  0  0  0  0
   -3.4485   -7.6691    0.0000 C   0  0  0  0  0  0  0  0  0  0  0  0
    0.9219    1.3011    0.0000 C   0  0  0  0  0  0  0  0  0  0  0  0
    1.3400   -1.3391    0.0000 C   0  0  0  0  0  0  0  0  0  0  0  0
    4.5291   -0.1989    0.0000 C   0  0  0  0  0  0  0  0  0  0  0  0
   -1.5178   -5.9307    0.0000 C   0  0  0  0  0  0  0  0  0  0  0  0
    4.5291    2.8011    0.0000 C   0  0  0  0  0  0  0  0  0  0  0  0
  -10.5627   -8.6200    0.0000 C   0  0  0  0  0  0  0  0  0  0  0  0
   -0.1272   -1.6509    0.0000 C   0  0  0  0  0  0  0  0  0  0  0  0
   -0.5909   -3.0776    0.0000 C   0  0  0  0  0  0  0  0  0  0  0  0
    5.8282    0.5511    0.0000 C   0  0  0  0  0  0  0  0  0  0  0  0
    5.8282    2.0511    0.0000 C   0  0  0  0  0  0  0  0  0  0  0  0
  1  7  1  0  0  0  0
  1  8  1  0  0  0  0
  2 16  1  0  0  0  0
  2 27  1  0  0  0  0
  3 14  1  0  0  0  0
  3 20  1  0  0  0  0
  4 17  1  0  0  0  0
  4 25  2  0  0  0  0
  5 19  2  0  0  0  0
  5 23  1  0  0  0  0
  6 26  1  0  0  0  0
  7 10  1  0  0  0  0
  7 11  2  0  0  0  0
  8  9  1  0  0  0  0
  8 17  2  0  0  0  0
  9 11  1  0  0  0  0
  9 18  2  0  0  0  0
 10 15  2  0  0  0  0
 10 19  1  0  0  0  0
 12 13  1  0  0  0  0
 12 14  1  0  0  0  0
 12 22  2  0  0  0  0
 13 20  2  0  0  0  0
 13 21  1  0  0  0  0
 14 24  2  0  0  0  0
 15 16  1  0  0  0  0
 16 23  2  0  0  0  0
 18 25  1  0  0  0  0
 21 26  1  0  0  0  0
 22 28  1  0  0  0  0
 24 29  1  0  0  0  0
 26 27  1  0  0  0  0
 28 29  2  0  0  0  0
M  END
> <Value>
7.199970640755866

> <Relation>
=

> <SourceURI>
mol:CHEMBL1966524

$$$$

Generated by Molecular Materials Informatics

 30 33  0  0  0  0  0  0  0  0999 V2000
    2.9948    9.5208    0.0000 F   0  0  0  0  0  0  0  0  0  0  0  0
    4.2939    4.2708    0.0000 O   0  0  0  0  0  0  0  0  0  0  0  0
    9.4899    7.2708    0.0000 O   0  0  0  0  0  0  0  0  0  0  0  0
    8.1910    5.0208    0.0000 O   0  0  0  0  0  0  0  0  0  0  0  0
   -1.0299   -4.4428    0.0000 N   0  0  0  0  0  0  0  0  0  0  0  0
   -1.9115   -3.2291    0.0000 N   0  0  0  0  0  0  0  0  0  0  0  0
   -1.4933   -0.5891    0.0000 N   0  0  0  0  0  0  0  0  0  0  0  0
    2.9948    6.5208    0.0000 N   0  0  0  0  0  0  0  0  0  0  0  0
    1.6957    4.2708    0.0000 N   0  0  0  0  0  0  0  0  0  0  0  0
    0.3967   -2.4791    0.0000 C   0  0  0  0  0  0  0  0  0  0  0  0
    1.6957   -1.7291    0.0000 C   0  0  0  0  0  0  0  0  0  0  0  0
    0.3967   -3.9791    0.0000 C   0  0  0  0  0  0  0  0  0  0  0  0
   -1.0299   -2.0157    0.0000 C   0  0  0  0  0  0  0  0  0  0  0  0
    1.6957   -0.2291    0.0000 C   0  0  0  0  0  0  0  0  0  0  0  0
    2.9948   -2.4791    0.0000 C   0  0  0  0  0  0  0  0  0  0  0  0
    1.6957   -4.7291    0.0000 C   0  0  0  0  0  0  0  0  0  0  0  0
    0.3967    0.5209    0.0000 C   0  0  0  0  0  0  0  0  0  0  0  0
    2.9948    0.5209    0.0000 C   0  0  0  0  0  0  0  0  0  0  0  0
    2.9948   -3.9791    0.0000 C   0  0  0  0  0  0  0  0  0  0  0  0
    4.2939    7.2708    0.0000 C   0  0  0  0  0  0  0  0  0  0  0  0
    1.6957    2.7708    0.0000 C   0  0  0  0  0  0  0  0  0  0  0  0
    4.2939    8.7708    0.0000 C   0  0  0  0  0  0  0  0  0  0  0  0
    0.3967    2.0209    0.0000 C   0  0  0  0  0  0  0  0  0  0  0  0
    2.9948    2.0209    0.0000 C   0  0  0  0  0  0  0  0  0  0  0  0
    6.8919    7.2708    0.0000 C   0  0  0  0  0  0  0  0  0  0  0  0
    5.5928    6.5208    0.0000 C   0  0  0  0  0  0  0  0  0  0  0  0
    2.9948    5.0208    0.0000 C   0  0  0  0  0  0  0  0  0  0  0  0
    5.5928    9.5208    0.0000 C   0  0  0  0  0  0  0  0  0  0  0  0
    6.8919    8.7708    0.0000 C   0  0  0  0  0  0  0  0  0  0  0  0
    8.1910    6.5208    0.0000 C   0  0  0  0  0  0  0  0  0  0  0  0
  1 22  1  0  0  0  0
  2 27  2  0  0  0  0
  3 30  2  0  0  0  0
  4 30  1  0  0  0  0
  5  6  1  0  0  0  0
  5 12  1  0  0  0  0
  6 13  2  0  0  0  0
  7 13  1  0  0  0  0
  8 20  1  0  0  0  0
  8 27  1  0  0  0  0
  9 21  1  0  0  0  0
  9 27  1  0  0  0  0
 10 11  2  0  0  0  0
 10 12  1  0  0  0  0
 10 13  1  0  0  0  0
 11 14  1  0  0  0  0
 11 15  1  0  0  0  0
 12 16  2  0  0  0  0
 14 17  2  0  0  0  0
 14 18  1  0  0  0  0
 15 19  2  0  0  0  0
 16 19  1  0  0  0  0
 17 23  1  0  0  0  0
 18 24  2  0  0  0  0
 20 22  1  0  0  0  0
 20 26  2  0  0  0  0
 21 23  2  0  0  0  0
 21 24  1  0  0  0  0
 22 28  2  0  0  0  0
 25 26  1  0  0  0  0
 25 29  2  0  0  0  0
 25 30  1  0  0  0  0
 28 29  1  0  0  0  0
M  END
> <Value>
5.899998417198648

> <Relation>
<

> <SourceURI>
mol:CHEMBL1993722

$$$$

Generated by Molecular Materials Informatics

 29 32  0  0  0  0  0  0  0  0999 V2000
   -2.6629   -8.4416    0.0000 O   0  5  0  0  0  0  0  0  0  0  0  0
    1.2341    5.8083    0.0000 O   0  0  0  0  0  0  0  0  0  0  0  0
   -0.0649   -0.9417    0.0000 N   0  0  0  0  0  0  0  0  0  0  0  0
    1.2341    1.3083    0.0000 N   0  0  0  0  0  0  0  0  0  0  0  0
    3.8321    1.3083    0.0000 N   0  0  0  0  0  0  0  0  0  0  0  0
   -1.4915   -1.4053    0.0000 N   0  0  0  0  0  0  0  0  0  0  0  0
    1.2341   -3.1916    0.0000 N   0  0  0  0  0  0  0  0  0  0  0  0
   -1.3640   -7.6916    0.0000 N   0  3  0  0  0  0  0  0  0  0  0  0
   -0.0649    0.5583    0.0000 C   0  0  0  0  0  0  0  0  0  0  0  0
    1.2341   -1.6916    0.0000 C   0  0  0  0  0  0  0  0  0  0  0  0
    2.5332    0.5583    0.0000 C   0  0  0  0  0  0  0  0  0  0  0  0
   -1.4915    1.0218    0.0000 C   0  0  0  0  0  0  0  0  0  0  0  0
    2.5332   -0.9417    0.0000 C   0  0  0  0  0  0  0  0  0  0  0  0
   -2.3731   -0.1917    0.0000 C   0  0  0  0  0  0  0  0  0  0  0  0
    3.8321    2.8083    0.0000 C   0  0  0  0  0  0  0  0  0  0  0  0
   -1.9549    2.4483    0.0000 C   0  0  0  0  0  0  0  0  0  0  0  0
    5.1312    0.5583    0.0000 C   0  0  0  0  0  0  0  0  0  0  0  0
   -0.0649   -3.9416    0.0000 C   0  0  0  0  0  0  0  0  0  0  0  0
    5.1312    3.5583    0.0000 C   0  0  0  0  0  0  0  0  0  0  0  0
    2.5332    3.5583    0.0000 C   0  0  0  0  0  0  0  0  0  0  0  0
   -0.0649   -5.4416    0.0000 C   0  0  0  0  0  0  0  0  0  0  0  0
    6.4303    1.3083    0.0000 C   0  0  0  0  0  0  0  0  0  0  0  0
    6.4303    2.8083    0.0000 C   0  0  0  0  0  0  0  0  0  0  0  0
   -3.4222    2.7601    0.0000 C   0  0  0  0  0  0  0  0  0  0  0  0
   -1.3640   -6.1916    0.0000 C   0  0  0  0  0  0  0  0  0  0  0  0
    1.2341   -6.1916    0.0000 C   0  0  0  0  0  0  0  0  0  0  0  0
    2.5332    5.0583    0.0000 C   0  0  0  0  0  0  0  0  0  0  0  0
    1.2341   -7.6916    0.0000 C   0  0  0  0  0  0  0  0  0  0  0  0
   -0.0649   -8.4416    0.0000 C   0  0  0  0  0  0  0  0  0  0  0  0
  1  8  1  0  0  0  0
  2 27  1  0  0  0  0
  3  6  1  0  0  0  0
  3  9  1  0  0  0  0
  3 10  1  0  0  0  0
  4  9  1  0  0  0  0
  4 11  2  0  0  0  0
  5 11  1  0  0  0  0
  5 15  1  0  0  0  0
  5 17  1  0  0  0  0
  6 14  2  0  0  0  0
  7 10  1  0  0  0  0
  7 18  1  0  0  0  0
  8 25  2  0  0  0  0
  8 29  1  0  0  0  0
  9 12  2  0  0  0  0
 10 13  2  0  0  0  0
 11 13  1  0  0  0  0
 12 14  1  0  0  0  0
 12 16  1  0  0  0  0
 15 19  1  0  0  0  0
 15 20  1  0  0  0  0
 16 24  1  0  0  0  0
 17 22  1  0  0  0  0
 18 21  1  0  0  0  0
 19 23  1  0  0  0  0
 20 27  1  0  0  0  0
 21 25  1  0  0  0  0
 21 26  2  0  0  0  0
 22 23  1  0  0  0  0
 26 28  1  0  0  0  0
 28 29  2  0  0  0  0
M  CHG  2   1  -1   8   1
M  END
> <Value>
5.300000202445418

> <Relation>
<

> <SourceURI>
mol:CHEMBL2006674

$$$$

Generated by Molecular Materials Informatics

 21 23  0  0  0  0  0  0  0  0999 V2000
    6.4342    1.4081    0.0000 Br  0  0  0  0  0  0  0  0  0  0  0  0
    7.6477   -0.9736    0.0000 S   0  0  0  0  0  0  0  0  0  0  0  0
    5.2660   -5.0403    0.0000 N   0  0  0  0  0  0  0  0  0  0  0  0
    4.0524   -5.9220    0.0000 N   0  0  0  0  0  0  0  0  0  0  0  0
    1.4124   -5.5038    0.0000 N   0  0  0  0  0  0  0  0  0  0  0  0
   -3.0465   -1.4890    0.0000 N   0  0  0  0  0  0  0  0  0  0  0  0
    4.8024   -3.6136    0.0000 C   0  0  0  0  0  0  0  0  0  0  0  0
    5.6842   -2.4001    0.0000 C   0  0  0  0  0  0  0  0  0  0  0  0
    2.8389   -5.0403    0.0000 C   0  0  0  0  0  0  0  0  0  0  0  0
    3.3024   -3.6136    0.0000 C   0  0  0  0  0  0  0  0  0  0  0  0
    5.2206   -0.9736    0.0000 C   0  0  0  0  0  0  0  0  0  0  0  0
    7.1842   -2.4001    0.0000 C   0  0  0  0  0  0  0  0  0  0  0  0
    0.2977   -4.5001    0.0000 C   0  0  0  0  0  0  0  0  0  0  0  0
    6.4342   -0.0919    0.0000 C   0  0  0  0  0  0  0  0  0  0  0  0
   -1.9318   -2.4927    0.0000 C   0  0  0  0  0  0  0  0  0  0  0  0
   -1.1289   -4.9636    0.0000 C   0  0  0  0  0  0  0  0  0  0  0  0
    0.6095   -3.0329    0.0000 C   0  0  0  0  0  0  0  0  0  0  0  0
   -2.2436   -3.9600    0.0000 C   0  0  0  0  0  0  0  0  0  0  0  0
   -0.5052   -2.0292    0.0000 C   0  0  0  0  0  0  0  0  0  0  0  0
   -4.4731   -1.9525    0.0000 C   0  0  0  0  0  0  0  0  0  0  0  0
   -2.7347   -0.0218    0.0000 C   0  0  0  0  0  0  0  0  0  0  0  0
  1 14  1  0  0  0  0
  2 12  1  0  0  0  0
  2 14  1  0  0  0  0
  3  4  1  0  0  0  0
  3  7  1  0  0  0  0
  4  9  2  0  0  0  0
  5  9  1  0  0  0  0
  5 13  1  0  0  0  0
  6 15  1  0  0  0  0
  6 20  1  0  0  0  0
  6 21  1  0  0  0  0
  7  8  1  0  0  0  0
  7 10  2  0  0  0  0
  8 11  1  0  0  0  0
  8 12  2  0  0  0  0
  9 10  1  0  0  0  0
 11 14  2  0  0  0  0
 13 16  2  0  0  0  0
 13 17  1  0  0  0  0
 15 18  2  0  0  0  0
 15 19  1  0  0  0  0
 16 18  1  0  0  0  0
 17 19  2  0  0  0  0
M  END
> <Value>
5.300000202445418

> <Relation>
<

> <SourceURI>
mol:CHEMBL1984236

$$$$

Generated by Molecular Materials Informatics

 21 23  0  0  0  0  0  0  0  0999 V2000
   -0.2923    3.3563    0.0000 O   0  0  0  0  0  0  0  0  0  0  0  0
   -0.2923   -2.6437    0.0000 O   0  0  0  0  0  0  0  0  0  0  0  0
    2.3057   -2.6437    0.0000 N   0  0  0  0  0  0  0  0  0  0  0  0
    1.0068   -4.8938    0.0000 N   0  0  0  0  0  0  0  0  0  0  0  0
   -1.5914   -4.8938    0.0000 N   0  0  0  0  0  0  0  0  0  0  0  0
   -1.5914   -7.8938    0.0000 N   0  0  0  0  0  0  0  0  0  0  0  0
    1.0068   -0.3937    0.0000 C   0  0  0  0  0  0  0  0  0  0  0  0
    1.0068    1.1063    0.0000 C   0  0  0  0  0  0  0  0  0  0  0  0
    2.3057   -1.1437    0.0000 C   0  0  0  0  0  0  0  0  0  0  0  0
   -0.2923    1.8563    0.0000 C   0  0  0  0  0  0  0  0  0  0  0  0
   -0.2923   -1.1437    0.0000 C   0  0  0  0  0  0  0  0  0  0  0  0
    2.3057    1.8563    0.0000 C   0  0  0  0  0  0  0  0  0  0  0  0
    3.6048   -0.3937    0.0000 C   0  0  0  0  0  0  0  0  0  0  0  0
    1.0068   -3.3937    0.0000 C   0  0  0  0  0  0  0  0  0  0  0  0
    3.6048    1.1063    0.0000 C   0  0  0  0  0  0  0  0  0  0  0  0
   -1.5914    1.1063    0.0000 C   0  0  0  0  0  0  0  0  0  0  0  0
   -0.2923   -5.6438    0.0000 C   0  0  0  0  0  0  0  0  0  0  0  0
   -1.5914   -0.3937    0.0000 C   0  0  0  0  0  0  0  0  0  0  0  0
   -0.2923   -7.1437    0.0000 C   0  0  0  0  0  0  0  0  0  0  0  0
   -2.8903   -5.6438    0.0000 C   0  0  0  0  0  0  0  0  0  0  0  0
   -2.8903   -7.1437    0.0000 C   0  0  0  0  0  0  0  0  0  0  0  0
  1 10  1  0  0  0  0
  2 14  2  0  0  0  0
  3  9  1  0  0  0  0
  3 14  1  0  0  0  0
  4 14  1  0  0  0  0
  4 17  1  0  0  0  0
  5 17  1  0  0  0  0
  5 20  2  0  0  0  0
  6 19  1  0  0  0  0
  6 21  2  0  0  0  0
  7  8  1  0  0  0  0
  7  9  2  0  0  0  0
  7 11  1  0  0  0  0
  8 10  1  0  0  0  0
  8 12  2  0  0  0  0
  9 13  1  0  0  0  0
 10 16  2  0  0  0  0
 11 18  2  0  0  0  0
 12 15  1  0  0  0  0
 13 15  2  0  0  0  0
 16 18  1  0  0  0  0
 17 19  2  0  0  0  0
 20 21  1  0  0  0  0
M  END
> <Value>
6.499996931948306

> <Relation>
=

> <SourceURI>
mol:CHEMBL1992371

$$$$

Generated by Molecular Materials Informatics

 23 25  0  0  0  0  0  0  0  0999 V2000
   -4.2387    3.9227    0.0000 F   0  0  0  0  0  0  0  0  0  0  0  0
   -5.1658    6.7759    0.0000 F   0  0  0  0  0  0  0  0  0  0  0  0
    4.5948   -0.5494    0.0000 O   0  0  0  0  0  0  0  0  0  0  0  0
   -1.8444    0.7579    0.0000 N   0  0  0  0  0  0  0  0  0  0  0  0
    0.3727   -0.8530    0.0000 N   0  0  0  0  0  0  0  0  0  0  0  0
   -2.3080    2.1844    0.0000 N   0  0  0  0  0  0  0  0  0  0  0  0
    1.8399   -0.5412    0.0000 N   0  0  0  0  0  0  0  0  0  0  0  0
    3.2957    1.7006    0.0000 N   0  0  0  0  0  0  0  0  0  0  0  0
    0.6265    1.5606    0.0000 C   0  0  0  0  0  0  0  0  0  0  0  0
   -0.3773    0.4460    0.0000 C   0  0  0  0  0  0  0  0  0  0  0  0
   -1.3044    3.2991    0.0000 C   0  0  0  0  0  0  0  0  0  0  0  0
    1.9966    0.9506    0.0000 C   0  0  0  0  0  0  0  0  0  0  0  0
   -1.7678    4.7256    0.0000 C   0  0  0  0  0  0  0  0  0  0  0  0
    0.1628    2.9873    0.0000 C   0  0  0  0  0  0  0  0  0  0  0  0
   -3.2351    5.0374    0.0000 C   0  0  0  0  0  0  0  0  0  0  0  0
   -3.6985    6.4641    0.0000 C   0  0  0  0  0  0  0  0  0  0  0  0
   -0.7642    5.8403    0.0000 C   0  0  0  0  0  0  0  0  0  0  0  0
    4.5948    0.9506    0.0000 C   0  0  0  0  0  0  0  0  0  0  0  0
   -2.6949    7.5788    0.0000 C   0  0  0  0  0  0  0  0  0  0  0  0
   -1.2277    7.2668    0.0000 C   0  0  0  0  0  0  0  0  0  0  0  0
    5.8936    1.7006    0.0000 C   0  0  0  0  0  0  0  0  0  0  0  0
    7.1927    0.9506    0.0000 C   0  0  0  0  0  0  0  0  0  0  0  0
    8.4918    1.7006    0.0000 C   0  0  0  0  0  0  0  0  0  0  0  0
  1 15  1  0  0  0  0
  2 16  1  0  0  0  0
  3 18  2  0  0  0  0
  4  6  1  0  0  0  0
  4 10  2  0  0  0  0
  5  7  1  0  0  0  0
  5 10  1  0  0  0  0
  6 11  2  0  0  0  0
  7 12  2  0  0  0  0
  8 12  1  0  0  0  0
  8 18  1  0  0  0  0
  9 10  1  0  0  0  0
  9 12  1  0  0  0  0
  9 14  2  0  0  0  0
 11 13  1  0  0  0  0
 11 14  1  0  0  0  0
 13 15  1  0  0  0  0
 13 17  2  0  0  0  0
 15 16  2  0  0  0  0
 16 19  1  0  0  0  0
 17 20  1  0  0  0  0
 18 21  1  0  0  0  0
 19 20  2  0  0  0  0
 21 22  1  0  0  0  0
 22 23  1  0  0  0  0
M  END
> <Value>
5.899998417198648

> <Relation>
<

> <SourceURI>
mol:CHEMBL1979970

$$$$

Generated by Molecular Materials Informatics

 28 32  0  0  0  0  0  0  0  0999 V2000
    8.2944   -0.6394    0.0000 O   0  0  0  0  0  0  0  0  0  0  0  0
   -3.4974    0.1687    0.0000 O   0  0  0  0  0  0  0  0  0  0  0  0
    4.2965    1.6687    0.0000 N   0  0  0  0  0  0  0  0  0  0  0  0
   -0.8995    4.6686    0.0000 N   0  0  0  0  0  0  0  0  0  0  0  0
   -0.8995    0.1687    0.0000 N   0  0  0  0  0  0  0  0  0  0  0  0
   -2.1985   -2.0812    0.0000 N   0  0  0  0  0  0  0  0  0  0  0  0
   -4.7965   -2.0812    0.0000 N   0  0  0  0  0  0  0  0  0  0  0  0
   -4.7965   -5.0811    0.0000 N   0  0  0  0  0  0  0  0  0  0  0  0
    2.9975    2.4187    0.0000 C   0  0  0  0  0  0  0  0  0  0  0  0
    0.3996    2.4187    0.0000 C   0  0  0  0  0  0  0  0  0  0  0  0
    5.9205   -0.1349    0.0000 C   0  0  0  0  0  0  0  0  0  0  0  0
    6.6705    1.1642    0.0000 C   0  0  0  0  0  0  0  0  0  0  0  0
    0.3996    3.9186    0.0000 C   0  0  0  0  0  0  0  0  0  0  0  0
    1.6984    1.6687    0.0000 C   0  0  0  0  0  0  0  0  0  0  0  0
   -0.8995    1.6687    0.0000 C   0  0  0  0  0  0  0  0  0  0  0  0
    4.4533    0.1769    0.0000 C   0  0  0  0  0  0  0  0  0  0  0  0
    5.6669    2.2789    0.0000 C   0  0  0  0  0  0  0  0  0  0  0  0
    2.9975    3.9186    0.0000 C   0  0  0  0  0  0  0  0  0  0  0  0
    1.6984    4.6686    0.0000 C   0  0  0  0  0  0  0  0  0  0  0  0
    6.9241   -1.2496    0.0000 C   0  0  0  0  0  0  0  0  0  0  0  0
    8.1377    0.8522    0.0000 C   0  0  0  0  0  0  0  0  0  0  0  0
   -2.1985    2.4187    0.0000 C   0  0  0  0  0  0  0  0  0  0  0  0
   -2.1985    3.9186    0.0000 C   0  0  0  0  0  0  0  0  0  0  0  0
   -2.1985   -0.5812    0.0000 C   0  0  0  0  0  0  0  0  0  0  0  0
   -3.4974   -2.8312    0.0000 C   0  0  0  0  0  0  0  0  0  0  0  0
   -3.4974   -4.3311    0.0000 C   0  0  0  0  0  0  0  0  0  0  0  0
   -6.0955   -2.8312    0.0000 C   0  0  0  0  0  0  0  0  0  0  0  0
   -6.0955   -4.3311    0.0000 C   0  0  0  0  0  0  0  0  0  0  0  0
  1 20  1  0  0  0  0
  1 21  1  0  0  0  0
  2 24  2  0  0  0  0
  3  9  1  0  0  0  0
  3 16  1  0  0  0  0
  3 17  1  0  0  0  0
  4 13  1  0  0  0  0
  4 23  2  0  0  0  0
  5 15  1  0  0  0  0
  5 24  1  0  0  0  0
  6 24  1  0  0  0  0
  6 25  1  0  0  0  0
  7 25  1  0  0  0  0
  7 27  2  0  0  0  0
  8 26  1  0  0  0  0
  8 28  2  0  0  0  0
  9 14  1  0  0  0  0
  9 18  2  0  0  0  0
 10 13  1  0  0  0  0
 10 14  2  0  0  0  0
 10 15  1  0  0  0  0
 11 12  1  0  0  0  0
 11 16  1  0  0  0  0
 11 20  1  0  0  0  0
 12 17  1  0  0  0  0
 12 21  1  0  0  0  0
 13 19  2  0  0  0  0
 15 22  2  0  0  0  0
 18 19  1  0  0  0  0
 22 23  1  0  0  0  0
 25 26  2  0  0  0  0
 27 28  1  0  0  0  0
M  END
> <Value>
5.300000202445418

> <Relation>
<

> <SourceURI>
mol:CHEMBL2002599

$$$$

Generated by Molecular Materials Informatics

 29 33  0  0  0  0  0  0  0  0999 V2000
   -1.5771   -6.0332    0.0000 C   0  0  0  0  0  0  0  0  0  0  0  0
   -1.4102   -7.5276    0.0000 C   0  0  0  0  0  0  0  0  0  0  0  0
   -0.0353   -8.1272    0.0000 C   0  0  0  0  0  0  0  0  0  0  0  0
   -0.3758   -5.1426    0.0000 C   0  0  0  0  0  0  0  0  0  0  0  0
   -2.9517   -5.4345    0.0000 O   0  0  0  0  0  0  0  0  0  0  0  0
   -4.1573   -6.3254    0.0000 C   0  0  0  0  0  0  0  0  0  0  0  0
    0.9995   -5.7354    0.0000 C   0  0  0  0  0  0  0  0  0  0  0  0
    1.1695   -7.2359    0.0000 C   0  0  0  0  0  0  0  0  0  0  0  0
    2.6493   -7.5381    0.0000 C   0  0  0  0  0  0  0  0  0  0  0  0
    2.3741   -5.1101    0.0000 C   0  0  0  0  0  0  0  0  0  0  0  0
    3.3970   -6.2305    0.0000 C   0  0  0  0  0  0  0  0  0  0  0  0
    4.7788   -5.6041    0.0000 C   0  0  0  0  0  0  0  0  0  0  0  0
    4.6099   -4.0964    0.0000 N   0  0  0  0  0  0  0  0  0  0  0  0
    3.1239   -3.7910    0.0000 N   0  0  0  0  0  0  0  0  0  0  0  0
    6.0783   -6.3412    0.0000 C   0  0  0  0  0  0  0  0  0  0  0  0
    6.0859   -7.8425    0.0000 C   0  0  0  0  0  0  0  0  0  0  0  0
    7.3878   -8.5832    0.0000 C   0  0  0  0  0  0  0  0  0  0  0  0
    8.6829   -7.8247    0.0000 C   0  0  0  0  0  0  0  0  0  0  0  0
    8.6678   -6.3177    0.0000 N   0  0  0  0  0  0  0  0  0  0  0  0
    7.3650   -5.5837    0.0000 C   0  0  0  0  0  0  0  0  0  0  0  0
   -5.5317   -5.7266    0.0000 C   0  0  0  0  0  0  0  0  0  0  0  0
    9.9898   -8.5556    0.0000 C   0  0  0  0  0  0  0  0  0  0  0  0
   11.2940   -9.2945    0.0000 N   0  0  0  0  0  0  0  0  0  0  0  0
   -6.7375   -6.6176    0.0000 N   0  0  0  0  0  0  0  0  0  0  0  0
   -8.1066   -6.0227    0.0000 C   0  0  0  0  0  0  0  0  0  0  0  0
   -9.3092   -6.9067    0.0000 C   0  0  0  0  0  0  0  0  0  0  0  0
   -9.1483   -8.3980    0.0000 O   0  0  0  0  0  0  0  0  0  0  0  0
   -7.7735   -9.0007    0.0000 C   0  0  0  0  0  0  0  0  0  0  0  0
   -6.5599   -8.1123    0.0000 C   0  0  0  0  0  0  0  0  0  0  0  0
 13 14  1  0  0  0  0
 14 10  1  0  0  0  0
  7  8  1  0  0  0  0
  3  8  2  0  0  0  0
 15 16  2  0  0  0  0
  1  2  2  0  0  0  0
 16 17  1  0  0  0  0
  7  4  2  0  0  0  0
 17 18  2  0  0  0  0
  8  9  1  0  0  0  0
 18 19  1  0  0  0  0
  9 11  1  0  0  0  0
 19 20  2  0  0  0  0
 20 15  1  0  0  0  0
 12 15  1  0  0  0  0
 10  7  1  0  0  0  0
  6 21  1  0  0  0  0
 10 11  2  0  0  0  0
  4  1  1  0  0  0  0
 22 23  3  0  0  0  0
 18 22  1  0  0  0  0
 21 24  1  0  0  0  0
 24 25  1  0  0  0  0
  1  5  1  0  0  0  0
  2  3  1  0  0  0  0
  5  6  1  0  0  0  0
 11 12  1  0  0  0  0
 12 13  2  0  0  0  0
 24 29  1  0  0  0  0
 25 26  1  0  0  0  0
 26 27  1  0  0  0  0
 27 28  1  0  0  0  0
 28 29  1  0  0  0  0
M  END
> <Value>
5.899998417198648

> <Relation>
<

> <SourceURI>
mol:CHEMBL249282

$$$$

Generated by Molecular Materials Informatics

 16 18  0  0  0  0  0  0  0  0999 V2000
   -1.7275    1.0218    0.0000 N   0  0  0  0  0  0  0  0  0  0  0  0
   -2.6091   -0.1917    0.0000 N   0  0  0  0  0  0  0  0  0  0  0  0
    4.8951   -3.9416    0.0000 N   0  0  0  0  0  0  0  0  0  0  0  0
   -0.3010   -0.9417    0.0000 C   0  0  0  0  0  0  0  0  0  0  0  0
   -0.3010    0.5583    0.0000 C   0  0  0  0  0  0  0  0  0  0  0  0
    2.2972   -0.9417    0.0000 C   0  0  0  0  0  0  0  0  0  0  0  0
   -1.7275   -1.4053    0.0000 C   0  0  0  0  0  0  0  0  0  0  0  0
    0.9981   -1.6916    0.0000 C   0  0  0  0  0  0  0  0  0  0  0  0
    3.5961   -1.6916    0.0000 C   0  0  0  0  0  0  0  0  0  0  0  0
    0.9981    1.3083    0.0000 C   0  0  0  0  0  0  0  0  0  0  0  0
    2.2972    0.5583    0.0000 C   0  0  0  0  0  0  0  0  0  0  0  0
    3.5961   -3.1916    0.0000 C   0  0  0  0  0  0  0  0  0  0  0  0
    4.8951   -0.9417    0.0000 C   0  0  0  0  0  0  0  0  0  0  0  0
   -2.1909   -2.8318    0.0000 C   0  0  0  0  0  0  0  0  0  0  0  0
    6.1942   -1.6916    0.0000 C   0  0  0  0  0  0  0  0  0  0  0  0
    6.1942   -3.1916    0.0000 C   0  0  0  0  0  0  0  0  0  0  0  0
  1  2  1  0  0  0  0
  1  5  1  0  0  0  0
  2  7  2  0  0  0  0
  3 12  2  0  0  0  0
  3 16  1  0  0  0  0
  4  5  1  0  0  0  0
  4  7  1  0  0  0  0
  4  8  2  0  0  0  0
  5 10  2  0  0  0  0
  6  8  1  0  0  0  0
  6  9  1  0  0  0  0
  6 11  2  0  0  0  0
  7 14  1  0  0  0  0
  9 12  1  0  0  0  0
  9 13  2  0  0  0  0
 10 11  1  0  0  0  0
 13 15  1  0  0  0  0
 15 16  2  0  0  0  0
M  END
> <Value>
5.700000503883016

> <Relation>
=

> <SourceURI>
mol:CHEMBL1967252

$$$$

Generated by Molecular Materials Informatics

 20 22  0  0  0  0  0  0  0  0999 V2000
   -1.7980    3.0105    0.0000 Cl  0  0  0  0  0  0  0  0  0  0  0  0
    1.2020   -2.1855    0.0000 O   0  0  0  0  0  0  0  0  0  0  0  0
    5.7020   -2.1855    0.0000 O   0  0  0  0  0  0  0  0  0  0  0  0
    5.7020    3.0105    0.0000 O   0  0  0  0  0  0  0  0  0  0  0  0
    5.7020    0.4125    0.0000 N   0  0  0  0  0  0  0  0  0  0  0  0
    3.4520   -3.4846    0.0000 N   0  0  0  0  0  0  0  0  0  0  0  0
    1.9520    4.3096    0.0000 N   0  0  0  0  0  0  0  0  0  0  0  0
    2.7020    0.4125    0.0000 C   0  0  0  0  0  0  0  0  0  0  0  0
    3.4520   -0.8866    0.0000 C   0  0  0  0  0  0  0  0  0  0  0  0
    1.2020    0.4125    0.0000 C   0  0  0  0  0  0  0  0  0  0  0  0
    3.4520    1.7116    0.0000 C   0  0  0  0  0  0  0  0  0  0  0  0
    0.4520   -0.8866    0.0000 C   0  0  0  0  0  0  0  0  0  0  0  0
    2.7020   -2.1855    0.0000 C   0  0  0  0  0  0  0  0  0  0  0  0
    4.9520   -0.8866    0.0000 C   0  0  0  0  0  0  0  0  0  0  0  0
    4.9520    1.7116    0.0000 C   0  0  0  0  0  0  0  0  0  0  0  0
    0.4520    1.7116    0.0000 C   0  0  0  0  0  0  0  0  0  0  0  0
   -1.0480   -0.8866    0.0000 C   0  0  0  0  0  0  0  0  0  0  0  0
   -1.0480    1.7116    0.0000 C   0  0  0  0  0  0  0  0  0  0  0  0
    2.7020    3.0105    0.0000 C   0  0  0  0  0  0  0  0  0  0  0  0
   -1.7980    0.4125    0.0000 C   0  0  0  0  0  0  0  0  0  0  0  0
  1 18  1  0  0  0  0
  2 12  1  0  0  0  0
  2 13  1  0  0  0  0
  3 14  2  0  0  0  0
  4 15  1  0  0  0  0
  5 14  1  0  0  0  0
  5 15  1  0  0  0  0
  6 13  2  0  0  0  0
  7 19  3  0  0  0  0
  8  9  2  0  0  0  0
  8 10  1  0  0  0  0
  8 11  1  0  0  0  0
  9 13  1  0  0  0  0
  9 14  1  0  0  0  0
 10 12  1  0  0  0  0
 10 16  2  0  0  0  0
 11 15  2  0  0  0  0
 11 19  1  0  0  0  0
 12 17  2  0  0  0  0
 16 18  1  0  0  0  0
 17 20  1  0  0  0  0
 18 20  2  0  0  0  0
M  END
> <Value>
5.899998417198648

> <Relation>
<

> <SourceURI>
mol:CHEMBL1973711

$$$$

Generated by Molecular Materials Informatics

 29 32  0  0  0  0  0  0  0  0999 V2000
    5.7052   -5.6500    0.0000 O   0  0  0  0  0  0  0  0  0  0  0  0
    1.6805   -3.1137    0.0000 N   0  0  0  0  0  0  0  0  0  0  0  0
    1.6805   -0.6867    0.0000 N   0  0  0  0  0  0  0  0  0  0  0  0
   -1.4511   -0.6012    0.0000 N   0  0  0  0  0  0  0  0  0  0  0  0
   -3.7011    0.6979    0.0000 N   0  0  0  0  0  0  0  0  0  0  0  0
    3.1070   -5.6500    0.0000 N   0  0  0  0  0  0  0  0  0  0  0  0
   -8.2010    3.2958    0.0000 N   0  0  0  0  0  0  0  0  0  0  0  0
   -9.7010    5.8940    0.0000 N   0  0  0  0  0  0  0  0  0  0  0  0
    3.1070   -2.6501    0.0000 C   0  0  0  0  0  0  0  0  0  0  0  0
    3.1070   -1.1501    0.0000 C   0  0  0  0  0  0  0  0  0  0  0  0
    0.7989   -1.9001    0.0000 C   0  0  0  0  0  0  0  0  0  0  0  0
    4.4061   -3.4001    0.0000 C   0  0  0  0  0  0  0  0  0  0  0  0
   -0.7011   -1.9001    0.0000 C   0  0  0  0  0  0  0  0  0  0  0  0
    4.4061   -0.4001    0.0000 C   0  0  0  0  0  0  0  0  0  0  0  0
    5.7052   -2.6501    0.0000 C   0  0  0  0  0  0  0  0  0  0  0  0
    4.4061   -4.9000    0.0000 C   0  0  0  0  0  0  0  0  0  0  0  0
    5.7052   -1.1501    0.0000 C   0  0  0  0  0  0  0  0  0  0  0  0
   -1.4511   -3.1992    0.0000 C   0  0  0  0  0  0  0  0  0  0  0  0
   -2.9511   -0.6012    0.0000 C   0  0  0  0  0  0  0  0  0  0  0  0
   -2.9511   -3.1992    0.0000 C   0  0  0  0  0  0  0  0  0  0  0  0
   -3.7011   -1.9001    0.0000 C   0  0  0  0  0  0  0  0  0  0  0  0
   -5.2010    0.6979    0.0000 C   0  0  0  0  0  0  0  0  0  0  0  0
   -5.9510    1.9969    0.0000 C   0  0  0  0  0  0  0  0  0  0  0  0
   -7.4510    1.9969    0.0000 C   0  0  0  0  0  0  0  0  0  0  0  0
   -9.7010    3.2958    0.0000 C   0  0  0  0  0  0  0  0  0  0  0  0
   -7.4510    4.5949    0.0000 C   0  0  0  0  0  0  0  0  0  0  0  0
  -10.4510    4.5949    0.0000 C   0  0  0  0  0  0  0  0  0  0  0  0
   -8.2010    5.8940    0.0000 C   0  0  0  0  0  0  0  0  0  0  0  0
  -10.4510    7.1930    0.0000 C   0  0  0  0  0  0  0  0  0  0  0  0
  1 16  2  0  0  0  0
  2  9  1  0  0  0  0
  2 11  2  0  0  0  0
  3 10  1  0  0  0  0
  3 11  1  0  0  0  0
  4 13  2  0  0  0  0
  4 19  1  0  0  0  0
  5 19  1  0  0  0  0
  5 22  1  0  0  0  0
  6 16  1  0  0  0  0
  7 24  1  0  0  0  0
  7 25  1  0  0  0  0
  7 26  1  0  0  0  0
  8 27  1  0  0  0  0
  8 28  1  0  0  0  0
  8 29  1  0  0  0  0
  9 10  1  0  0  0  0
  9 12  2  0  0  0  0
 10 14  2  0  0  0  0
 11 13  1  0  0  0  0
 12 15  1  0  0  0  0
 12 16  1  0  0  0  0
 13 18  1  0  0  0  0
 14 17  1  0  0  0  0
 15 17  2  0  0  0  0
 18 20  2  0  0  0  0
 19 21  2  0  0  0  0
 20 21  1  0  0  0  0
 22 23  1  0  0  0  0
 23 24  1  0  0  0  0
 25 27  1  0  0  0  0
 26 28  1  0  0  0  0
M  END
> <Value>
5.899998417198648

> <Relation>
<

> <SourceURI>
mol:CHEMBL2006237

$$$$

Generated by Molecular Materials Informatics

 39 42  0  0  0  0  0  0  0  0999 V2000
  -12.0647   -5.2331    0.0000 O   0  0  0  0  0  0  0  0  0  0  0  0
   -2.6451   -2.1960    0.0000 O   0  0  0  0  0  0  0  0  0  0  0  0
    6.4482   -4.4460    0.0000 O   0  0  0  0  0  0  0  0  0  0  0  0
    5.1491   -2.1960    0.0000 O   0  0  0  0  0  0  0  0  0  0  0  0
   -7.8413   -3.6960    0.0000 N   0  0  0  0  0  0  0  0  0  0  0  0
   -7.9980   -2.2042    0.0000 N   0  0  0  0  0  0  0  0  0  0  0  0
   -9.5235   -5.7733    0.0000 N   0  0  0  0  0  0  0  0  0  0  0  0
  -11.2618   -7.7042    0.0000 N   0  0  0  0  0  0  0  0  0  0  0  0
   -1.3460   -4.4460    0.0000 N   0  0  0  0  0  0  0  0  0  0  0  0
   -9.2116   -4.3062    0.0000 C   0  0  0  0  0  0  0  0  0  0  0  0
   -9.4653   -1.8924    0.0000 C   0  0  0  0  0  0  0  0  0  0  0  0
   -6.5422   -4.4460    0.0000 C   0  0  0  0  0  0  0  0  0  0  0  0
  -10.2153   -3.1915    0.0000 C   0  0  0  0  0  0  0  0  0  0  0  0
  -10.0753   -0.5220    0.0000 C   0  0  0  0  0  0  0  0  0  0  0  0
   -5.2431   -3.6960    0.0000 C   0  0  0  0  0  0  0  0  0  0  0  0
   -3.9442   -4.4460    0.0000 C   0  0  0  0  0  0  0  0  0  0  0  0
   -6.5422   -5.9460    0.0000 C   0  0  0  0  0  0  0  0  0  0  0  0
  -10.9500   -6.2369    0.0000 C   0  0  0  0  0  0  0  0  0  0  0  0
  -10.1471   -8.7078    0.0000 C   0  0  0  0  0  0  0  0  0  0  0  0
  -10.4591  -10.1751    0.0000 C   0  0  0  0  0  0  0  0  0  0  0  0
   -9.3444  -11.1787    0.0000 C   0  0  0  0  0  0  0  0  0  0  0  0
   -3.9442   -5.9460    0.0000 C   0  0  0  0  0  0  0  0  0  0  0  0
   -5.2431   -6.6960    0.0000 C   0  0  0  0  0  0  0  0  0  0  0  0
   -2.6451   -3.6960    0.0000 C   0  0  0  0  0  0  0  0  0  0  0  0
  -10.6855    0.8482    0.0000 C   0  0  0  0  0  0  0  0  0  0  0  0
  -11.4456   -1.1322    0.0000 C   0  0  0  0  0  0  0  0  0  0  0  0
   -8.7051    0.0880    0.0000 C   0  0  0  0  0  0  0  0  0  0  0  0
   -8.7206   -8.2442    0.0000 C   0  0  0  0  0  0  0  0  0  0  0  0
  -11.8856  -10.6386    0.0000 C   0  0  0  0  0  0  0  0  0  0  0  0
   -7.9178  -10.7151    0.0000 C   0  0  0  0  0  0  0  0  0  0  0  0
   -9.6562  -12.6460    0.0000 C   0  0  0  0  0  0  0  0  0  0  0  0
   -7.6058   -9.2480    0.0000 C   0  0  0  0  0  0  0  0  0  0  0  0
  -12.1975  -12.1058    0.0000 C   0  0  0  0  0  0  0  0  0  0  0  0
  -11.0827  -13.1095    0.0000 C   0  0  0  0  0  0  0  0  0  0  0  0
   -0.0471   -3.6960    0.0000 C   0  0  0  0  0  0  0  0  0  0  0  0
    1.2520   -4.4460    0.0000 C   0  0  0  0  0  0  0  0  0  0  0  0
    2.5511   -3.6960    0.0000 C   0  0  0  0  0  0  0  0  0  0  0  0
    3.8502   -4.4460    0.0000 C   0  0  0  0  0  0  0  0  0  0  0  0
    5.1491   -3.6960    0.0000 C   0  0  0  0  0  0  0  0  0  0  0  0
  1 18  2  0  0  0  0
  2 24  2  0  0  0  0
  3 39  2  0  0  0  0
  4 39  1  0  0  0  0
  5  6  1  0  0  0  0
  5 10  1  0  0  0  0
  5 12  1  0  0  0  0
  6 11  2  0  0  0  0
  7 10  1  0  0  0  0
  7 18  1  0  0  0  0
  8 18  1  0  0  0  0
  8 19  1  0  0  0  0
  9 24  1  0  0  0  0
  9 35  1  0  0  0  0
 10 13  2  0  0  0  0
 11 13  1  0  0  0  0
 11 14  1  0  0  0  0
 12 15  1  0  0  0  0
 12 17  2  0  0  0  0
 14 25  1  0  0  0  0
 14 26  1  0  0  0  0
 14 27  1  0  0  0  0
 15 16  2  0  0  0  0
 16 22  1  0  0  0  0
 16 24  1  0  0  0  0
 17 23  1  0  0  0  0
 19 20  1  0  0  0  0
 19 28  2  0  0  0  0
 20 21  1  0  0  0  0
 20 29  2  0  0  0  0
 21 30  1  0  0  0  0
 21 31  2  0  0  0  0
 22 23  2  0  0  0  0
 28 32  1  0  0  0  0
 29 33  1  0  0  0  0
 30 32  2  0  0  0  0
 31 34  1  0  0  0  0
 33 34  2  0  0  0  0
 35 36  1  0  0  0  0
 36 37  1  0  0  0  0
 37 38  1  0  0  0  0
 38 39  1  0  0  0  0
M  END
> <Value>
5.300000202445418

> <Relation>
<

> <SourceURI>
mol:CHEMBL1999506

$$$$

Generated by Molecular Materials Informatics

 38 42  0  0  0  0  0  0  0  0999 V2000
    0.7929    3.4182    0.0000 S   0  0  0  0  0  0  0  0  0  0  0  0
   -6.8535   -9.9306    0.0000 F   0  0  0  0  0  0  0  0  0  0  0  0
   -0.4865    9.7831    0.0000 O   0  0  0  0  0  0  0  0  0  0  0  0
   -3.5322   -3.9124    0.0000 O   0  0  0  0  0  0  0  0  0  0  0  0
    2.7685    7.5129    0.0000 N   0  0  0  0  0  0  0  0  0  0  0  0
    4.8176    1.4545    0.0000 N   0  0  0  0  0  0  0  0  0  0  0  0
    4.2686    7.5129    0.0000 N   0  0  0  0  0  0  0  0  0  0  0  0
    3.5186   -0.7955    0.0000 N   0  0  0  0  0  0  0  0  0  0  0  0
   -1.0613   -4.7153    0.0000 N   0  0  0  0  0  0  0  0  0  0  0  0
    1.6153   11.3102    0.0000 N   0  0  0  0  0  0  0  0  0  0  0  0
   -2.9920   -6.4537    0.0000 N   0  0  0  0  0  0  0  0  0  0  0  0
    2.2195    1.4545    0.0000 C   0  0  0  0  0  0  0  0  0  0  0  0
    2.2195    2.9545    0.0000 C   0  0  0  0  0  0  0  0  0  0  0  0
    3.5186    3.7045    0.0000 C   0  0  0  0  0  0  0  0  0  0  0  0
    0.7929    0.9911    0.0000 C   0  0  0  0  0  0  0  0  0  0  0  0
    3.5186    5.2045    0.0000 C   0  0  0  0  0  0  0  0  0  0  0  0
    3.5186    0.7045    0.0000 C   0  0  0  0  0  0  0  0  0  0  0  0
    0.3295   -0.4355    0.0000 C   0  0  0  0  0  0  0  0  0  0  0  0
   -0.0887    2.2045    0.0000 C   0  0  0  0  0  0  0  0  0  0  0  0
    4.8176    2.9545    0.0000 C   0  0  0  0  0  0  0  0  0  0  0  0
    2.3049    6.0864    0.0000 C   0  0  0  0  0  0  0  0  0  0  0  0
    1.8869    8.7264    0.0000 C   0  0  0  0  0  0  0  0  0  0  0  0
    4.7320    6.0864    0.0000 C   0  0  0  0  0  0  0  0  0  0  0  0
    1.3331   -1.5502    0.0000 C   0  0  0  0  0  0  0  0  0  0  0  0
   -1.1378   -0.7473    0.0000 C   0  0  0  0  0  0  0  0  0  0  0  0
    1.0051    9.9400    0.0000 C   0  0  0  0  0  0  0  0  0  0  0  0
   -0.5976   -3.2887    0.0000 C   0  0  0  0  0  0  0  0  0  0  0  0
    0.8695   -2.9767    0.0000 C   0  0  0  0  0  0  0  0  0  0  0  0
   -1.6015   -2.1740    0.0000 C   0  0  0  0  0  0  0  0  0  0  0  0
    3.1004    9.6080    0.0000 C   0  0  0  0  0  0  0  0  0  0  0  0
    0.6733    7.8447    0.0000 C   0  0  0  0  0  0  0  0  0  0  0  0
   -2.5284   -5.0271    0.0000 C   0  0  0  0  0  0  0  0  0  0  0  0
   -4.4591   -6.7657    0.0000 C   0  0  0  0  0  0  0  0  0  0  0  0
   -4.9227   -8.1922    0.0000 C   0  0  0  0  0  0  0  0  0  0  0  0
   -5.4629   -5.6509    0.0000 C   0  0  0  0  0  0  0  0  0  0  0  0
   -6.3900   -8.5040    0.0000 C   0  0  0  0  0  0  0  0  0  0  0  0
   -6.9302   -5.9628    0.0000 C   0  0  0  0  0  0  0  0  0  0  0  0
   -7.3936   -7.3893    0.0000 C   0  0  0  0  0  0  0  0  0  0  0  0
  1 13  1  0  0  0  0
  1 19  1  0  0  0  0
  2 36  1  0  0  0  0
  3 26  2  0  0  0  0
  4 32  2  0  0  0  0
  5  7  1  0  0  0  0
  5 21  1  0  0  0  0
  5 22  1  0  0  0  0
  6 17  2  0  0  0  0
  6 20  1  0  0  0  0
  7 23  2  0  0  0  0
  8 17  1  0  0  0  0
  9 27  1  0  0  0  0
  9 32  1  0  0  0  0
 10 26  1  0  0  0  0
 11 32  1  0  0  0  0
 11 33  1  0  0  0  0
 12 13  2  0  0  0  0
 12 15  1  0  0  0  0
 12 17  1  0  0  0  0
 13 14  1  0  0  0  0
 14 16  1  0  0  0  0
 14 20  2  0  0  0  0
 15 18  1  0  0  0  0
 15 19  2  0  0  0  0
 16 21  2  0  0  0  0
 16 23  1  0  0  0  0
 18 24  2  0  0  0  0
 18 25  1  0  0  0  0
 22 26  1  0  0  0  0
 22 30  1  0  0  0  0
 22 31  1  0  0  0  0
 24 28  1  0  0  0  0
 25 29  2  0  0  0  0
 27 28  2  0  0  0  0
 27 29  1  0  0  0  0
 33 34  1  0  0  0  0
 33 35  2  0  0  0  0
 34 36  2  0  0  0  0
 35 37  1  0  0  0  0
 36 38  1  0  0  0  0
 37 38  2  0  0  0  0
M  END
> <Value>
5.899998417198648

> <Relation>
<

> <SourceURI>
mol:CHEMBL1967720

$$$$

Generated by Molecular Materials Informatics

 28 31  0  0  0  0  0  0  0  0999 V2000
   -6.1226    3.7326    0.0000 Cl  0  0  0  0  0  0  0  0  0  0  0  0
    5.2281    6.6323    0.0000 O   0  0  0  0  0  0  0  0  0  0  0  0
   -1.7210    2.7972    0.0000 N   0  0  0  0  0  0  0  0  0  0  0  0
   -2.2611   -2.1712    0.0000 N   0  0  0  0  0  0  0  0  0  0  0  0
   -3.6517    4.5355    0.0000 N   0  0  0  0  0  0  0  0  0  0  0  0
    0.4645   -2.4578    0.0000 N   0  0  0  0  0  0  0  0  0  0  0  0
   -1.1808    5.3384    0.0000 N   0  0  0  0  0  0  0  0  0  0  0  0
    4.6881    4.0910    0.0000 N   0  0  0  0  0  0  0  0  0  0  0  0
    7.1591    4.8937    0.0000 N   0  0  0  0  0  0  0  0  0  0  0  0
   -2.2611    0.2557    0.0000 C   0  0  0  0  0  0  0  0  0  0  0  0
   -0.8346   -0.2078    0.0000 C   0  0  0  0  0  0  0  0  0  0  0  0
   -2.7248    1.6824    0.0000 C   0  0  0  0  0  0  0  0  0  0  0  0
   -0.8346   -1.7078    0.0000 C   0  0  0  0  0  0  0  0  0  0  0  0
   -3.1428   -0.9578    0.0000 C   0  0  0  0  0  0  0  0  0  0  0  0
   -2.1846    4.2237    0.0000 C   0  0  0  0  0  0  0  0  0  0  0  0
   -4.1919    1.9942    0.0000 C   0  0  0  0  0  0  0  0  0  0  0  0
    0.4645    0.5422    0.0000 C   0  0  0  0  0  0  0  0  0  0  0  0
   -4.6555    3.4208    0.0000 C   0  0  0  0  0  0  0  0  0  0  0  0
    0.2863    5.0264    0.0000 C   0  0  0  0  0  0  0  0  0  0  0  0
    1.7634   -0.2078    0.0000 C   0  0  0  0  0  0  0  0  0  0  0  0
    1.7634   -1.7078    0.0000 C   0  0  0  0  0  0  0  0  0  0  0  0
    1.2901    6.1412    0.0000 C   0  0  0  0  0  0  0  0  0  0  0  0
    0.7500    3.5999    0.0000 C   0  0  0  0  0  0  0  0  0  0  0  0
    3.2209    4.4028    0.0000 C   0  0  0  0  0  0  0  0  0  0  0  0
    2.7572    5.8293    0.0000 C   0  0  0  0  0  0  0  0  0  0  0  0
    2.2171    3.2881    0.0000 C   0  0  0  0  0  0  0  0  0  0  0  0
    5.6918    5.2057    0.0000 C   0  0  0  0  0  0  0  0  0  0  0  0
    8.1627    6.0084    0.0000 C   0  0  0  0  0  0  0  0  0  0  0  0
  1 18  1  0  0  0  0
  2 27  2  0  0  0  0
  3 12  2  0  0  0  0
  3 15  1  0  0  0  0
  4 13  1  0  0  0  0
  4 14  1  0  0  0  0
  5 15  2  0  0  0  0
  5 18  1  0  0  0  0
  6 13  2  0  0  0  0
  6 21  1  0  0  0  0
  7 15  1  0  0  0  0
  7 19  1  0  0  0  0
  8 24  1  0  0  0  0
  8 27  1  0  0  0  0
  9 27  1  0  0  0  0
  9 28  1  0  0  0  0
 10 11  1  0  0  0  0
 10 12  1  0  0  0  0
 10 14  2  0  0  0  0
 11 13  1  0  0  0  0
 11 17  2  0  0  0  0
 12 16  1  0  0  0  0
 16 18  2  0  0  0  0
 17 20  1  0  0  0  0
 19 22  1  0  0  0  0
 19 23  1  0  0  0  0
 20 21  2  0  0  0  0
 22 25  1  0  0  0  0
 23 26  1  0  0  0  0
 24 25  1  0  0  0  0
 24 26  1  0  0  0  0
M  END
> <Value>
6.799998134593398

> <Relation>
=

> <SourceURI>
mol:CHEMBL2005509

$$$$

Generated by Molecular Materials Informatics

 30 34  0  0  0  0  0  0  0  0999 V2000
    8.8807    3.3520    0.0000 F   0  0  0  0  0  0  0  0  0  0  0  0
    6.2826   -1.1479    0.0000 F   0  0  0  0  0  0  0  0  0  0  0  0
    3.6846   -5.6478    0.0000 F   0  0  0  0  0  0  0  0  0  0  0  0
    3.6846    4.8520    0.0000 O   0  0  0  0  0  0  0  0  0  0  0  0
   -0.2124    2.6020    0.0000 O   0  0  0  0  0  0  0  0  0  0  0  0
    1.0865    4.8520    0.0000 O   0  0  0  0  0  0  0  0  0  0  0  0
    8.8807    0.3521    0.0000 N   0  0  0  0  0  0  0  0  0  0  0  0
    3.6846    0.3521    0.0000 N   0  0  0  0  0  0  0  0  0  0  0  0
    6.2826    0.3521    0.0000 N   0  0  0  0  0  0  0  0  0  0  0  0
   13.3035   -2.2015    0.0000 N   0  0  0  0  0  0  0  0  0  0  0  0
   11.2546   -0.1525    0.0000 C   0  0  0  0  0  0  0  0  0  0  0  0
   10.5046   -1.4515    0.0000 C   0  0  0  0  0  0  0  0  0  0  0  0
   12.0046   -1.4515    0.0000 C   0  0  0  0  0  0  0  0  0  0  0  0
    4.9837    1.1021    0.0000 C   0  0  0  0  0  0  0  0  0  0  0  0
    7.5816    1.1021    0.0000 C   0  0  0  0  0  0  0  0  0  0  0  0
    4.9837    2.6020    0.0000 C   0  0  0  0  0  0  0  0  0  0  0  0
   10.2508    0.9623    0.0000 C   0  0  0  0  0  0  0  0  0  0  0  0
    9.0374   -1.1397    0.0000 C   0  0  0  0  0  0  0  0  0  0  0  0
    7.5816    2.6020    0.0000 C   0  0  0  0  0  0  0  0  0  0  0  0
    3.6846    3.3520    0.0000 C   0  0  0  0  0  0  0  0  0  0  0  0
    2.3856    2.6020    0.0000 C   0  0  0  0  0  0  0  0  0  0  0  0
    6.2826    3.3520    0.0000 C   0  0  0  0  0  0  0  0  0  0  0  0
    3.6846   -1.1479    0.0000 C   0  0  0  0  0  0  0  0  0  0  0  0
    2.3856    1.1021    0.0000 C   0  0  0  0  0  0  0  0  0  0  0  0
    4.9837   -1.8979    0.0000 C   0  0  0  0  0  0  0  0  0  0  0  0
    1.0865    3.3520    0.0000 C   0  0  0  0  0  0  0  0  0  0  0  0
    2.3856   -1.8979    0.0000 C   0  0  0  0  0  0  0  0  0  0  0  0
    4.9837   -3.3978    0.0000 C   0  0  0  0  0  0  0  0  0  0  0  0
    2.3856   -3.3978    0.0000 C   0  0  0  0  0  0  0  0  0  0  0  0
    3.6846   -4.1478    0.0000 C   0  0  0  0  0  0  0  0  0  0  0  0
  1 19  1  0  0  0  0
  2 25  1  0  0  0  0
  3 30  1  0  0  0  0
  4 20  2  0  0  0  0
  5 26  2  0  0  0  0
  6 26  1  0  0  0  0
  7 15  1  0  0  0  0
  7 17  1  0  0  0  0
  7 18  1  0  0  0  0
  8 14  1  0  0  0  0
  8 23  1  0  0  0  0
  8 24  1  0  0  0  0
  9 14  1  0  0  0  0
  9 15  2  0  0  0  0
 10 13  1  0  0  0  0
 11 12  1  0  0  0  0
 11 13  1  0  0  0  0
 11 17  1  0  0  0  0
 12 13  1  0  0  0  0
 12 18  1  0  0  0  0
 14 16  2  0  0  0  0
 15 19  1  0  0  0  0
 16 20  1  0  0  0  0
 16 22  1  0  0  0  0
 19 22  2  0  0  0  0
 20 21  1  0  0  0  0
 21 24  2  0  0  0  0
 21 26  1  0  0  0  0
 23 25  1  0  0  0  0
 23 27  2  0  0  0  0
 25 28  2  0  0  0  0
 27 29  1  0  0  0  0
 28 30  1  0  0  0  0
 29 30  2  0  0  0  0
M  END
> <Value>
5.899998417198648

> <Relation>
<

> <SourceURI>
mol:CHEMBL1624529

$$$$

Generated by Molecular Materials Informatics

 34 39  0  0  0  0  0  0  0  0999 V2000
   -2.8255    4.4741    0.0000 O   0  0  0  0  0  0  0  0  0  0  0  0
    2.4625   -0.9663    0.0000 N   0  0  0  0  0  0  0  0  0  0  0  0
    0.1544   -0.2163    0.0000 N   0  0  0  0  0  0  0  0  0  0  0  0
    5.0607    0.5337    0.0000 N   0  0  0  0  0  0  0  0  0  0  0  0
    3.7616    2.7837    0.0000 N   0  0  0  0  0  0  0  0  0  0  0  0
   -2.0138   -6.6125    0.0000 N   0  0  0  0  0  0  0  0  0  0  0  0
    2.4625    0.5337    0.0000 C   0  0  0  0  0  0  0  0  0  0  0  0
    1.0360   -1.4300    0.0000 C   0  0  0  0  0  0  0  0  0  0  0  0
    1.0360    0.9971    0.0000 C   0  0  0  0  0  0  0  0  0  0  0  0
    0.5725   -2.8565    0.0000 C   0  0  0  0  0  0  0  0  0  0  0  0
    3.7616    1.2837    0.0000 C   0  0  0  0  0  0  0  0  0  0  0  0
    0.5725    2.4237    0.0000 C   0  0  0  0  0  0  0  0  0  0  0  0
    3.7616   -1.7163    0.0000 C   0  0  0  0  0  0  0  0  0  0  0  0
    1.2535   -4.1931    0.0000 C   0  0  0  0  0  0  0  0  0  0  0  0
   -0.7640   -3.5374    0.0000 C   0  0  0  0  0  0  0  0  0  0  0  0
   -0.0831   -4.8740    0.0000 C   0  0  0  0  0  0  0  0  0  0  0  0
    5.0607   -0.9663    0.0000 C   0  0  0  0  0  0  0  0  0  0  0  0
   -0.8947    2.7355    0.0000 C   0  0  0  0  0  0  0  0  0  0  0  0
    1.5762    3.5384    0.0000 C   0  0  0  0  0  0  0  0  0  0  0  0
   -1.3584    4.1622    0.0000 C   0  0  0  0  0  0  0  0  0  0  0  0
   -0.5466   -6.3005    0.0000 C   0  0  0  0  0  0  0  0  0  0  0  0
    1.1125    4.9650    0.0000 C   0  0  0  0  0  0  0  0  0  0  0  0
   -0.3546    5.2770    0.0000 C   0  0  0  0  0  0  0  0  0  0  0  0
   -2.6240   -7.9827    0.0000 C   0  0  0  0  0  0  0  0  0  0  0  0
   -3.1286   -5.6087    0.0000 C   0  0  0  0  0  0  0  0  0  0  0  0
   -3.8293    3.3593    0.0000 C   0  0  0  0  0  0  0  0  0  0  0  0
   -4.1157   -7.8260    0.0000 C   0  0  0  0  0  0  0  0  0  0  0  0
   -4.4277   -6.3587    0.0000 C   0  0  0  0  0  0  0  0  0  0  0  0
   -5.2964    3.6711    0.0000 C   0  0  0  0  0  0  0  0  0  0  0  0
   -6.3002    2.5564    0.0000 C   0  0  0  0  0  0  0  0  0  0  0  0
   -5.7600    5.0977    0.0000 C   0  0  0  0  0  0  0  0  0  0  0  0
   -7.7673    2.8684    0.0000 C   0  0  0  0  0  0  0  0  0  0  0  0
   -7.2271    5.4097    0.0000 C   0  0  0  0  0  0  0  0  0  0  0  0
   -8.2309    4.2950    0.0000 C   0  0  0  0  0  0  0  0  0  0  0  0
  1 20  1  0  0  0  0
  1 26  1  0  0  0  0
  2  7  1  0  0  0  0
  2  8  1  0  0  0  0
  2 13  1  0  0  0  0
  3  8  2  0  0  0  0
  3  9  1  0  0  0  0
  4 11  2  0  0  0  0
  4 17  1  0  0  0  0
  5 11  1  0  0  0  0
  6 21  1  0  0  0  0
  6 24  1  0  0  0  0
  6 25  1  0  0  0  0
  7  9  2  0  0  0  0
  7 11  1  0  0  0  0
  8 10  1  0  0  0  0
  9 12  1  0  0  0  0
 10 14  1  0  0  0  0
 10 15  1  0  0  0  0
 12 18  1  0  0  0  0
 12 19  2  0  0  0  0
 13 17  2  0  0  0  0
 14 16  1  0  0  0  0
 15 16  1  0  0  0  0
 16 21  1  0  0  0  0
 18 20  2  0  0  0  0
 19 22  1  0  0  0  0
 20 23  1  0  0  0  0
 22 23  2  0  0  0  0
 24 27  1  0  0  0  0
 25 28  1  0  0  0  0
 26 29  1  0  0  0  0
 27 28  1  0  0  0  0
 29 30  2  0  0  0  0
 29 31  1  0  0  0  0
 30 32  1  0  0  0  0
 31 33  2  0  0  0  0
 32 34  2  0  0  0  0
 33 34  1  0  0  0  0
M  END
> <Value>
5.899998417198648

> <Relation>
<

> <SourceURI>
mol:CHEMBL1991138

$$$$

Generated by Molecular Materials Informatics

 32 35  0  0  0  0  0  0  0  0999 V2000
    0.7929    4.1169    0.0000 S   0  0  0  0  0  0  0  0  0  0  0  0
   -6.8535   -9.2318    0.0000 F   0  0  0  0  0  0  0  0  0  0  0  0
    4.8176    6.6533    0.0000 O   0  0  0  0  0  0  0  0  0  0  0  0
   -3.5322   -3.2136    0.0000 O   0  0  0  0  0  0  0  0  0  0  0  0
    4.8176    2.1533    0.0000 N   0  0  0  0  0  0  0  0  0  0  0  0
    3.5185   -0.0967    0.0000 N   0  0  0  0  0  0  0  0  0  0  0  0
    2.2195    6.6533    0.0000 N   0  0  0  0  0  0  0  0  0  0  0  0
   -1.0613   -4.0165    0.0000 N   0  0  0  0  0  0  0  0  0  0  0  0
   -2.9920   -5.7549    0.0000 N   0  0  0  0  0  0  0  0  0  0  0  0
    2.2195    2.1533    0.0000 C   0  0  0  0  0  0  0  0  0  0  0  0
    2.2195    3.6533    0.0000 C   0  0  0  0  0  0  0  0  0  0  0  0
    0.7929    1.6898    0.0000 C   0  0  0  0  0  0  0  0  0  0  0  0
    3.5185    4.4033    0.0000 C   0  0  0  0  0  0  0  0  0  0  0  0
    3.5185    1.4033    0.0000 C   0  0  0  0  0  0  0  0  0  0  0  0
    0.3295    0.2633    0.0000 C   0  0  0  0  0  0  0  0  0  0  0  0
   -0.0887    2.9033    0.0000 C   0  0  0  0  0  0  0  0  0  0  0  0
    4.8176    3.6533    0.0000 C   0  0  0  0  0  0  0  0  0  0  0  0
    3.5185    5.9033    0.0000 C   0  0  0  0  0  0  0  0  0  0  0  0
    1.3331   -0.8514    0.0000 C   0  0  0  0  0  0  0  0  0  0  0  0
   -1.1378   -0.0485    0.0000 C   0  0  0  0  0  0  0  0  0  0  0  0
   -0.5976   -2.5900    0.0000 C   0  0  0  0  0  0  0  0  0  0  0  0
    0.8695   -2.2780    0.0000 C   0  0  0  0  0  0  0  0  0  0  0  0
   -1.6015   -1.4752    0.0000 C   0  0  0  0  0  0  0  0  0  0  0  0
   -2.5284   -4.3283    0.0000 C   0  0  0  0  0  0  0  0  0  0  0  0
    2.2195    8.1533    0.0000 C   0  0  0  0  0  0  0  0  0  0  0  0
   -4.4591   -6.0669    0.0000 C   0  0  0  0  0  0  0  0  0  0  0  0
   -4.9227   -7.4934    0.0000 C   0  0  0  0  0  0  0  0  0  0  0  0
   -6.3900   -7.8053    0.0000 C   0  0  0  0  0  0  0  0  0  0  0  0
   -5.4629   -4.9522    0.0000 C   0  0  0  0  0  0  0  0  0  0  0  0
   -7.3936   -6.6905    0.0000 C   0  0  0  0  0  0  0  0  0  0  0  0
   -6.9302   -5.2640    0.0000 C   0  0  0  0  0  0  0  0  0  0  0  0
    0.9204    8.9033    0.0000 C   0  0  0  0  0  0  0  0  0  0  0  0
  1 11  1  0  0  0  0
  1 16  1  0  0  0  0
  2 28  1  0  0  0  0
  3 18  2  0  0  0  0
  4 24  2  0  0  0  0
  5 14  2  0  0  0  0
  5 17  1  0  0  0  0
  6 14  1  0  0  0  0
  7 18  1  0  0  0  0
  7 25  1  0  0  0  0
  8 21  1  0  0  0  0
  8 24  1  0  0  0  0
  9 24  1  0  0  0  0
  9 26  1  0  0  0  0
 10 11  2  0  0  0  0
 10 12  1  0  0  0  0
 10 14  1  0  0  0  0
 11 13  1  0  0  0  0
 12 15  1  0  0  0  0
 12 16  2  0  0  0  0
 13 17  2  0  0  0  0
 13 18  1  0  0  0  0
 15 19  2  0  0  0  0
 15 20  1  0  0  0  0
 19 22  1  0  0  0  0
 20 23  2  0  0  0  0
 21 22  2  0  0  0  0
 21 23  1  0  0  0  0
 25 32  1  0  0  0  0
 26 27  1  0  0  0  0
 26 29  2  0  0  0  0
 27 28  2  0  0  0  0
 28 30  1  0  0  0  0
 29 31  1  0  0  0  0
 30 31  2  0  0  0  0
M  END
> <Value>
5.899998417198648

> <Relation>
<

> <SourceURI>
mol:CHEMBL1979516

$$$$

Generated by Molecular Materials Informatics

 18 19  0  0  0  0  0  0  0  0999 V2000
   -0.8768   -2.3250    0.0000 O   0  0  0  0  0  0  0  0  0  0  0  0
    1.7212   -2.3250    0.0000 N   0  0  0  0  0  0  0  0  0  0  0  0
    1.7212   -6.8250    0.0000 N   0  0  0  0  0  0  0  0  0  0  0  0
   -0.8768    5.1750    0.0000 N   0  0  0  0  0  0  0  0  0  0  0  0
    0.4222   -0.0750    0.0000 C   0  0  0  0  0  0  0  0  0  0  0  0
    0.4222   -1.5750    0.0000 C   0  0  0  0  0  0  0  0  0  0  0  0
    0.4222    2.9250    0.0000 C   0  0  0  0  0  0  0  0  0  0  0  0
    1.7212   -3.8250    0.0000 C   0  0  0  0  0  0  0  0  0  0  0  0
   -0.8768    0.6750    0.0000 C   0  0  0  0  0  0  0  0  0  0  0  0
    1.7212    0.6750    0.0000 C   0  0  0  0  0  0  0  0  0  0  0  0
   -0.8768    2.1750    0.0000 C   0  0  0  0  0  0  0  0  0  0  0  0
    1.7212    2.1750    0.0000 C   0  0  0  0  0  0  0  0  0  0  0  0
    0.4222    4.4250    0.0000 C   0  0  0  0  0  0  0  0  0  0  0  0
    0.4222   -4.5750    0.0000 C   0  0  0  0  0  0  0  0  0  0  0  0
    3.0202   -4.5750    0.0000 C   0  0  0  0  0  0  0  0  0  0  0  0
    0.4222   -6.0750    0.0000 C   0  0  0  0  0  0  0  0  0  0  0  0
    3.0202   -6.0750    0.0000 C   0  0  0  0  0  0  0  0  0  0  0  0
    1.7212    5.1750    0.0000 C   0  0  0  0  0  0  0  0  0  0  0  0
  1  6  2  0  0  0  0
  2  6  1  0  0  0  0
  2  8  1  0  0  0  0
  3 16  2  0  0  0  0
  3 17  1  0  0  0  0
  4 13  1  0  0  0  0
  5  6  1  0  0  0  0
  5  9  1  0  0  0  0
  5 10  1  0  0  0  0
  7 11  1  0  0  0  0
  7 12  1  0  0  0  0
  7 13  1  0  0  0  0
  8 14  2  0  0  0  0
  8 15  1  0  0  0  0
  9 11  1  0  0  0  0
 10 12  1  0  0  0  0
 13 18  1  0  0  0  0
 14 16  1  0  0  0  0
 15 17  2  0  0  0  0
M  END
> <Value>
5.300000202445418

> <Relation>
<

> <SourceURI>
mol:CHEMBL1994526

$$$$

Generated by Molecular Materials Informatics

 20 22  0  0  0  0  0  0  0  0999 V2000
   -1.8624   -4.8074    0.0000 O   0  0  0  0  0  0  0  0  0  0  0  0
   -2.9602    0.3574    0.0000 O   0  0  0  0  0  0  0  0  0  0  0  0
   -4.1042   -3.3516    0.0000 N   0  0  0  0  0  0  0  0  0  0  0  0
   -4.4160   -1.8844    0.0000 N   0  0  0  0  0  0  0  0  0  0  0  0
   -0.0715    2.0273    0.0000 N   0  0  0  0  0  0  0  0  0  0  0  0
   -2.0022   -2.1380    0.0000 C   0  0  0  0  0  0  0  0  0  0  0  0
   -0.0715   -0.3997    0.0000 C   0  0  0  0  0  0  0  0  0  0  0  0
   -2.6124   -3.5084    0.0000 C   0  0  0  0  0  0  0  0  0  0  0  0
    1.3550    0.0639    0.0000 C   0  0  0  0  0  0  0  0  0  0  0  0
   -0.5350   -1.8262    0.0000 C   0  0  0  0  0  0  0  0  0  0  0  0
   -3.1169   -1.1344    0.0000 C   0  0  0  0  0  0  0  0  0  0  0  0
    1.3550    1.5639    0.0000 C   0  0  0  0  0  0  0  0  0  0  0  0
   -0.9532    0.8139    0.0000 C   0  0  0  0  0  0  0  0  0  0  0  0
    2.6540   -0.6861    0.0000 C   0  0  0  0  0  0  0  0  0  0  0  0
    2.6540    2.3139    0.0000 C   0  0  0  0  0  0  0  0  0  0  0  0
    3.9531    0.0639    0.0000 C   0  0  0  0  0  0  0  0  0  0  0  0
   -2.6124   -6.1063    0.0000 C   0  0  0  0  0  0  0  0  0  0  0  0
    3.9531    1.5639    0.0000 C   0  0  0  0  0  0  0  0  0  0  0  0
   -1.8624   -7.4054    0.0000 C   0  0  0  0  0  0  0  0  0  0  0  0
   -4.1124   -6.1063    0.0000 C   0  0  0  0  0  0  0  0  0  0  0  0
  1  8  1  0  0  0  0
  1 17  1  0  0  0  0
  2 11  2  0  0  0  0
  3  4  1  0  0  0  0
  3  8  2  0  0  0  0
  4 11  1  0  0  0  0
  5 12  1  0  0  0  0
  5 13  1  0  0  0  0
  6  8  1  0  0  0  0
  6 10  2  0  0  0  0
  6 11  1  0  0  0  0
  7  9  1  0  0  0  0
 10  7  1  0  0  0  0
  7 13  2  0  0  0  0
  9 12  1  0  0  0  0
  9 14  2  0  0  0  0
 12 15  2  0  0  0  0
 14 16  1  0  0  0  0
 15 18  1  0  0  0  0
 16 18  2  0  0  0  0
 17 19  1  0  0  0  0
 17 20  1  0  0  0  0
M  END
> <Value>
5.899998417198648

> <Relation>
<

> <SourceURI>
mol:CHEMBL1989029

$$$$

Generated by Molecular Materials Informatics

 29 31  0  0  0  0  0  0  0  0999 V2000
   14.5818   -2.6576    0.0000 N   0  0  0  0  0  0  0  0  0  0  0  0
   14.5798   -4.1619    0.0000 C   0  0  0  0  0  0  0  0  0  0  0  0
   15.8794   -4.9126    0.0000 N   0  0  0  0  0  0  0  0  0  0  0  0
   17.1819   -4.1610    0.0000 C   0  0  0  0  0  0  0  0  0  0  0  0
   17.1768   -2.6510    0.0000 C   0  0  0  0  0  0  0  0  0  0  0  0
   15.8761   -1.9072    0.0000 C   0  0  0  0  0  0  0  0  0  0  0  0
   18.4822   -4.9090    0.0000 N   0  0  0  0  0  0  0  0  0  0  0  0
   18.4844   -6.4090    0.0000 C   0  0  0  0  0  0  0  0  0  0  0  0
   19.7848   -7.1570    0.0000 C   0  0  0  0  0  0  0  0  0  0  0  0
   19.7797   -8.6511    0.0000 C   0  0  0  0  0  0  0  0  0  0  0  0
   21.0726   -9.3989    0.0000 C   0  0  0  0  0  0  0  0  0  0  0  0
   22.3747   -8.6533    0.0000 C   0  0  0  0  0  0  0  0  0  0  0  0
   22.3760   -7.1515    0.0000 C   0  0  0  0  0  0  0  0  0  0  0  0
   21.0749   -6.3955    0.0000 C   0  0  0  0  0  0  0  0  0  0  0  0
   23.6722   -9.4062    0.0000 C   0  0  0  0  0  0  0  0  0  0  0  0
   23.6687  -10.9062    0.0000 N   0  0  0  0  0  0  0  0  0  0  0  0
   13.2802   -4.9108    0.0000 N   0  0  0  0  0  0  0  0  0  0  0  0
   11.9816   -4.1599    0.0000 C   0  0  0  0  0  0  0  0  0  0  0  0
   18.4768   -1.8936    0.0000 N   0  3  0  0  0  0  0  0  0  0  0  0
   18.4712   -0.3936    0.0000 O   0  0  0  0  0  0  0  0  0  0  0  0
   19.7788   -2.6387    0.0000 O   0  5  0  0  0  0  0  0  0  0  0  0
   10.6820   -4.9088    0.0000 C   0  0  0  0  0  0  0  0  0  0  0  0
    9.3851   -4.1537    0.0000 C   0  0  0  0  0  0  0  0  0  0  0  0
    8.0864   -4.9016    0.0000 C   0  0  0  0  0  0  0  0  0  0  0  0
    8.0844   -6.4032    0.0000 C   0  0  0  0  0  0  0  0  0  0  0  0
    9.3919   -7.1539    0.0000 C   0  0  0  0  0  0  0  0  0  0  0  0
   10.6853   -6.4017    0.0000 C   0  0  0  0  0  0  0  0  0  0  0  0
   11.9862   -7.1484    0.0000 S   0  0  0  0  0  0  0  0  0  0  0  0
   11.9902   -8.6484    0.0000 C   0  0  0  0  0  0  0  0  0  0  0  0
 13 14  1  0  0  0  0
  4  7  1  0  0  0  0
 12 15  1  0  0  0  0
  3  4  2  0  0  0  0
 15 16  1  0  0  0  0
  7  8  1  0  0  0  0
  2 17  1  0  0  0  0
 17 18  1  0  0  0  0
  8  9  1  0  0  0  0
  9 10  1  0  0  0  0
  4  5  1  0  0  0  0
 19 20  2  0  0  0  0
 19 21  1  0  0  0  0
  5 19  1  0  0  0  0
  2  3  1  0  0  0  0
 18 22  1  0  0  0  0
  5  6  2  0  0  0  0
 22 23  2  0  0  0  0
  6  1  1  0  0  0  0
 23 24  1  0  0  0  0
  1  2  2  0  0  0  0
 24 25  2  0  0  0  0
  9 14  1  0  0  0  0
 25 26  1  0  0  0  0
 10 11  1  0  0  0  0
 26 27  2  0  0  0  0
 27 22  1  0  0  0  0
 11 12  1  0  0  0  0
 27 28  1  0  0  0  0
 12 13  1  0  0  0  0
 28 29  1  0  0  0  0
M  CHG  2  19   1  21  -1
M  END
> <Value>
5.899998417198648

> <Relation>
<

> <SourceURI>
mol:CHEMBL392642

$$$$

Generated by Molecular Materials Informatics

 33 36  0  0  0  0  0  0  0  0999 V2000
    6.8501   -0.9661    0.0000 C   0  0  0  0  0  0  0  0  0  0  0  0
    5.5511   -1.7161    0.0000 O   0  0  0  0  0  0  0  0  0  0  0  0
    4.2522   -0.9661    0.0000 C   0  0  0  0  0  0  0  0  0  0  0  0
    2.9531   -1.7161    0.0000 C   0  0  0  0  0  0  0  0  0  0  0  0
    1.6540   -0.9661    0.0000 C   0  0  0  0  0  0  0  0  0  0  0  0
    0.2274   -1.4296    0.0000 N   0  0  0  0  0  0  0  0  0  0  0  0
   -0.6542   -0.2161    0.0000 C   0  0  0  0  0  0  0  0  0  0  0  0
    0.2274    0.9975    0.0000 N   0  0  0  0  0  0  0  0  0  0  0  0
   -0.2360    2.4240    0.0000 C   0  0  0  0  0  0  0  0  0  0  0  0
   -1.6628    2.8875    0.0000 C   0  0  0  0  0  0  0  0  0  0  0  0
   -1.6628    4.3875    0.0000 C   0  0  0  0  0  0  0  0  0  0  0  0
   -2.8762    5.2693    0.0000 O   0  0  0  0  0  0  0  0  0  0  0  0
   -4.2466    4.6591    0.0000 C   0  0  0  0  0  0  0  0  0  0  0  0
   -5.4600    5.5408    0.0000 C   0  0  0  0  0  0  0  0  0  0  0  0
   -6.8304    4.9308    0.0000 C   0  0  0  0  0  0  0  0  0  0  0  0
   -8.0438    5.8124    0.0000 C   0  0  0  0  0  0  0  0  0  0  0  0
   -7.8871    7.3042    0.0000 C   0  0  0  0  0  0  0  0  0  0  0  0
   -6.5168    7.9142    0.0000 C   0  0  0  0  0  0  0  0  0  0  0  0
   -5.3033    7.0326    0.0000 C   0  0  0  0  0  0  0  0  0  0  0  0
   -3.9329    7.6428    0.0000 C   0  0  0  0  0  0  0  0  0  0  0  0
   -2.5626    8.2528    0.0000 F   0  0  0  0  0  0  0  0  0  0  0  0
   -3.3229    6.2724    0.0000 F   0  0  0  0  0  0  0  0  0  0  0  0
   -4.5431    9.0129    0.0000 F   0  0  0  0  0  0  0  0  0  0  0  0
   -0.2360    4.8511    0.0000 C   0  0  0  0  0  0  0  0  0  0  0  0
    0.6456    3.6375    0.0000 S   0  0  0  0  0  0  0  0  0  0  0  0
    0.2274    6.2777    0.0000 C   0  0  0  0  0  0  0  0  0  0  0  0
    1.6947    6.5895    0.0000 N   0  0  0  0  0  0  0  0  0  0  0  0
   -0.7762    7.3924    0.0000 O   0  0  0  0  0  0  0  0  0  0  0  0
    1.6540    0.5339    0.0000 C   0  0  0  0  0  0  0  0  0  0  0  0
    2.9531    1.2839    0.0000 C   0  0  0  0  0  0  0  0  0  0  0  0
    4.2522    0.5339    0.0000 C   0  0  0  0  0  0  0  0  0  0  0  0
    5.5511    1.2839    0.0000 O   0  0  0  0  0  0  0  0  0  0  0  0
    6.8501    0.5339    0.0000 C   0  0  0  0  0  0  0  0  0  0  0  0
  1  2  1  0  0  0  0
  2  3  1  0  0  0  0
  3  4  1  0  0  0  0
  4  5  2  0  0  0  0
  5  6  1  0  0  0  0
  6  7  2  0  0  0  0
  7  8  1  0  0  0  0
  8  9  1  0  0  0  0
  9 10  2  0  0  0  0
 10 11  1  0  0  0  0
 11 12  1  0  0  0  0
 12 13  1  0  0  0  0
 13 14  1  0  0  0  0
 14 15  2  0  0  0  0
 15 16  1  0  0  0  0
 16 17  2  0  0  0  0
 17 18  1  0  0  0  0
 18 19  2  0  0  0  0
 14 19  1  0  0  0  0
 19 20  1  0  0  0  0
 20 21  1  0  0  0  0
 20 22  1  0  0  0  0
 20 23  1  0  0  0  0
 11 24  2  0  0  0  0
 24 25  1  0  0  0  0
  9 25  1  0  0  0  0
 24 26  1  0  0  0  0
 26 27  1  0  0  0  0
 26 28  2  0  0  0  0
  8 29  1  0  0  0  0
  5 29  1  0  0  0  0
 29 30  2  0  0  0  0
 30 31  1  0  0  0  0
  3 31  2  0  0  0  0
 31 32  1  0  0  0  0
 32 33  1  0  0  0  0
M  END
> <Value>
5.899998417198648

> <Relation>
<

> <SourceURI>
mol:CHEMBL514499

$$$$

Generated by Molecular Materials Informatics

 27 30  0  0  0  0  0  0  0  0999 V2000
    1.2577    6.7599    0.0000 I   0  0  0  0  0  0  0  0  0  0  0  0
    6.5234   -1.5906    0.0000 O   0  0  0  0  0  0  0  0  0  0  0  0
   -0.4077   -4.1780    0.0000 O   0  0  0  0  0  0  0  0  0  0  0  0
    4.8461   -3.5746    0.0000 O   0  0  0  0  0  0  0  0  0  0  0  0
    2.6879    0.9330    0.0000 N   0  0  0  0  0  0  0  0  0  0  0  0
    1.7195   -0.2126    0.0000 C   0  0  0  0  0  0  0  0  0  0  0  0
    2.5097   -1.4875    0.0000 C   0  0  0  0  0  0  0  0  0  0  0  0
    3.9665   -1.1300    0.0000 C   0  0  0  0  0  0  0  0  0  0  0  0
    4.0766    0.3660    0.0000 C   0  0  0  0  0  0  0  0  0  0  0  0
    0.2203   -0.2593    0.0000 C   0  0  0  0  0  0  0  0  0  0  0  0
   -0.4888   -1.5811    0.0000 C   0  0  0  0  0  0  0  0  0  0  0  0
    2.3303    2.3898    0.0000 C   0  0  0  0  0  0  0  0  0  0  0  0
    1.8006   -2.8093    0.0000 C   0  0  0  0  0  0  0  0  0  0  0  0
    0.3014   -2.8562    0.0000 C   0  0  0  0  0  0  0  0  0  0  0  0
    5.1119   -2.0984    0.0000 C   0  0  0  0  0  0  0  0  0  0  0  0
   -0.5699    1.0156    0.0000 C   0  0  0  0  0  0  0  0  0  0  0  0
   -1.9881   -1.6280    0.0000 C   0  0  0  0  0  0  0  0  0  0  0  0
    5.3515    1.1561    0.0000 C   0  0  0  0  0  0  0  0  0  0  0  0
    0.8899    2.8085    0.0000 C   0  0  0  0  0  0  0  0  0  0  0  0
    3.4132    3.4278    0.0000 C   0  0  0  0  0  0  0  0  0  0  0  0
   -2.0692    0.9687    0.0000 C   0  0  0  0  0  0  0  0  0  0  0  0
   -2.7783   -0.3531    0.0000 C   0  0  0  0  0  0  0  0  0  0  0  0
    0.5325    4.2652    0.0000 C   0  0  0  0  0  0  0  0  0  0  0  0
    3.0557    4.8845    0.0000 C   0  0  0  0  0  0  0  0  0  0  0  0
    1.6154    5.3032    0.0000 C   0  0  0  0  0  0  0  0  0  0  0  0
    7.6688   -2.5590    0.0000 C   0  0  0  0  0  0  0  0  0  0  0  0
    9.0803   -2.0511    0.0000 C   0  0  0  0  0  0  0  0  0  0  0  0
  1 25  1  0  0  0  0
  2 15  1  0  0  0  0
  2 26  1  0  0  0  0
  3 14  1  0  0  0  0
  4 15  2  0  0  0  0
  5  6  1  0  0  0  0
  5  9  1  0  0  0  0
  5 12  1  0  0  0  0
  6  7  1  0  0  0  0
  6 10  2  0  0  0  0
  7  8  1  0  0  0  0
  7 13  2  0  0  0  0
  8  9  2  0  0  0  0
  8 15  1  0  0  0  0
  9 18  1  0  0  0  0
 10 11  1  0  0  0  0
 10 16  1  0  0  0  0
 11 14  2  0  0  0  0
 11 17  1  0  0  0  0
 12 19  2  0  0  0  0
 12 20  1  0  0  0  0
 13 14  1  0  0  0  0
 16 21  2  0  0  0  0
 17 22  2  0  0  0  0
 19 23  1  0  0  0  0
 20 24  2  0  0  0  0
 21 22  1  0  0  0  0
 23 25  2  0  0  0  0
 24 25  1  0  0  0  0
 26 27  1  0  0  0  0
M  END
> <Value>
5.300000202445418

> <Relation>
<

> <SourceURI>
mol:CHEMBL1970352

$$$$

Generated by Molecular Materials Informatics

 28 31  0  0  0  0  0  0  0  0999 V2000
   -4.7833   -1.4963    0.0000 O   0  0  0  0  0  0  0  0  0  0  0  0
   -1.8488    1.5543    0.0000 N   0  0  0  0  0  0  0  0  0  0  0  0
   -2.7304    0.3409    0.0000 N   0  0  0  0  0  0  0  0  0  0  0  0
    5.8487   -1.6638    0.0000 N   0  0  0  0  0  0  0  0  0  0  0  0
   -2.3122   -2.2992    0.0000 N   0  0  0  0  0  0  0  0  0  0  0  0
    3.6317   -2.6509    0.0000 N   0  0  0  0  0  0  0  0  0  0  0  0
    5.0987   -2.9629    0.0000 N   0  0  0  0  0  0  0  0  0  0  0  0
   -5.7101   -4.3496    0.0000 N   0  0  0  0  0  0  0  0  0  0  0  0
   -0.4222   -0.4091    0.0000 C   0  0  0  0  0  0  0  0  0  0  0  0
   -0.4222    1.0909    0.0000 C   0  0  0  0  0  0  0  0  0  0  0  0
    2.1759   -0.4091    0.0000 C   0  0  0  0  0  0  0  0  0  0  0  0
   -1.8488   -0.8727    0.0000 C   0  0  0  0  0  0  0  0  0  0  0  0
    0.8768   -1.1591    0.0000 C   0  0  0  0  0  0  0  0  0  0  0  0
    3.4748   -1.1591    0.0000 C   0  0  0  0  0  0  0  0  0  0  0  0
    0.8768    1.8409    0.0000 C   0  0  0  0  0  0  0  0  0  0  0  0
    2.1759    1.0909    0.0000 C   0  0  0  0  0  0  0  0  0  0  0  0
    4.8451   -0.5491    0.0000 C   0  0  0  0  0  0  0  0  0  0  0  0
   -3.7795   -2.6110    0.0000 C   0  0  0  0  0  0  0  0  0  0  0  0
    7.3405   -1.5069    0.0000 C   0  0  0  0  0  0  0  0  0  0  0  0
    8.2221   -2.7205    0.0000 C   0  0  0  0  0  0  0  0  0  0  0  0
   -4.2431   -4.0377    0.0000 C   0  0  0  0  0  0  0  0  0  0  0  0
    9.7139   -2.5636    0.0000 C   0  0  0  0  0  0  0  0  0  0  0  0
    7.6121   -4.0908    0.0000 C   0  0  0  0  0  0  0  0  0  0  0  0
   10.5955   -3.7772    0.0000 C   0  0  0  0  0  0  0  0  0  0  0  0
    8.4938   -5.3043    0.0000 C   0  0  0  0  0  0  0  0  0  0  0  0
    9.9856   -5.1475    0.0000 C   0  0  0  0  0  0  0  0  0  0  0  0
   -6.1738   -5.7761    0.0000 C   0  0  0  0  0  0  0  0  0  0  0  0
   -6.7139   -3.2348    0.0000 C   0  0  0  0  0  0  0  0  0  0  0  0
  1 18  2  0  0  0  0
  2  3  1  0  0  0  0
  2 10  1  0  0  0  0
  3 12  2  0  0  0  0
  4  7  1  0  0  0  0
  4 17  1  0  0  0  0
  4 19  1  0  0  0  0
  5 12  1  0  0  0  0
  5 18  1  0  0  0  0
  6  7  2  0  0  0  0
  6 14  1  0  0  0  0
  8 21  1  0  0  0  0
  8 27  1  0  0  0  0
  8 28  1  0  0  0  0
  9 10  1  0  0  0  0
  9 12  1  0  0  0  0
  9 13  2  0  0  0  0
 10 15  2  0  0  0  0
 11 13  1  0  0  0  0
 11 14  1  0  0  0  0
 11 16  2  0  0  0  0
 14 17  2  0  0  0  0
 15 16  1  0  0  0  0
 18 21  1  0  0  0  0
 19 20  1  0  0  0  0
 20 22  2  0  0  0  0
 20 23  1  0  0  0  0
 22 24  1  0  0  0  0
 23 25  2  0  0  0  0
 24 26  2  0  0  0  0
 25 26  1  0  0  0  0
M  END
> <Value>
6.0

> <Relation>
=

> <SourceURI>
mol:CHEMBL1965631

$$$$

Generated by Molecular Materials Informatics

 30 33  0  0  0  0  0  0  0  0999 V2000
    0.0303   -3.4447    0.0000 S   0  0  0  0  0  0  0  0  0  0  0  0
    0.5705    1.5237    0.0000 O   0  0  0  0  0  0  0  0  0  0  0  0
   -1.2837    7.2298    0.0000 O   0  0  0  0  0  0  0  0  0  0  0  0
    2.7560   -3.7313    0.0000 N   0  0  0  0  0  0  0  0  0  0  0  0
    4.0549   -1.4813    0.0000 N   0  0  0  0  0  0  0  0  0  0  0  0
   -1.9004    0.7207    0.0000 N   0  0  0  0  0  0  0  0  0  0  0  0
    2.7560    0.7687    0.0000 N   0  0  0  0  0  0  0  0  0  0  0  0
   -3.7546    6.4271    0.0000 N   0  0  0  0  0  0  0  0  0  0  0  0
   -3.2144    8.9684    0.0000 N   0  0  0  0  0  0  0  0  0  0  0  0
    1.4569   -1.4813    0.0000 C   0  0  0  0  0  0  0  0  0  0  0  0
    0.0303   -1.0178    0.0000 C   0  0  0  0  0  0  0  0  0  0  0  0
    1.4569   -2.9813    0.0000 C   0  0  0  0  0  0  0  0  0  0  0  0
    2.7560   -0.7313    0.0000 C   0  0  0  0  0  0  0  0  0  0  0  0
   -0.4333    0.4089    0.0000 C   0  0  0  0  0  0  0  0  0  0  0  0
   -0.8513   -2.2313    0.0000 C   0  0  0  0  0  0  0  0  0  0  0  0
    4.0549   -2.9813    0.0000 C   0  0  0  0  0  0  0  0  0  0  0  0
   -2.3641    2.1473    0.0000 C   0  0  0  0  0  0  0  0  0  0  0  0
   -3.2910    5.0006    0.0000 C   0  0  0  0  0  0  0  0  0  0  0  0
   -3.8312    2.4591    0.0000 C   0  0  0  0  0  0  0  0  0  0  0  0
   -1.3602    3.2620    0.0000 C   0  0  0  0  0  0  0  0  0  0  0  0
   -4.2948    3.8858    0.0000 C   0  0  0  0  0  0  0  0  0  0  0  0
   -1.8239    4.6886    0.0000 C   0  0  0  0  0  0  0  0  0  0  0  0
   -4.6817    9.2802    0.0000 C   0  0  0  0  0  0  0  0  0  0  0  0
   -2.7510    7.5418    0.0000 C   0  0  0  0  0  0  0  0  0  0  0  0
   -5.6853    8.1655    0.0000 C   0  0  0  0  0  0  0  0  0  0  0  0
   -5.1452   10.7068    0.0000 C   0  0  0  0  0  0  0  0  0  0  0  0
   -7.1526    8.4775    0.0000 C   0  0  0  0  0  0  0  0  0  0  0  0
   -6.6124   11.0188    0.0000 C   0  0  0  0  0  0  0  0  0  0  0  0
   -7.6161    9.9040    0.0000 C   0  0  0  0  0  0  0  0  0  0  0  0
   -5.2219    6.7389    0.0000 C   0  0  0  0  0  0  0  0  0  0  0  0
  1 12  1  0  0  0  0
  1 15  1  0  0  0  0
  2 14  2  0  0  0  0
  3 24  2  0  0  0  0
  4 12  2  0  0  0  0
  4 16  1  0  0  0  0
  5 13  1  0  0  0  0
  5 16  2  0  0  0  0
  6 14  1  0  0  0  0
  6 17  1  0  0  0  0
  7 13  1  0  0  0  0
  8 18  1  0  0  0  0
  8 24  1  0  0  0  0
  9 23  1  0  0  0  0
  9 24  1  0  0  0  0
 10 11  1  0  0  0  0
 10 12  1  0  0  0  0
 10 13  2  0  0  0  0
 11 14  1  0  0  0  0
 11 15  2  0  0  0  0
 17 19  2  0  0  0  0
 17 20  1  0  0  0  0
 18 21  2  0  0  0  0
 18 22  1  0  0  0  0
 19 21  1  0  0  0  0
 20 22  2  0  0  0  0
 23 25  1  0  0  0  0
 23 26  2  0  0  0  0
 25 27  2  0  0  0  0
 25 30  1  0  0  0  0
 26 28  1  0  0  0  0
 27 29  1  0  0  0  0
 28 29  2  0  0  0  0
M  END
> <Value>
5.899998417198648

> <Relation>
<

> <SourceURI>
mol:CHEMBL1980144

$$$$

Generated by Molecular Materials Informatics

 28 30  0  0  0  0  0  0  0  0999 V2000
    1.8188   -6.0748    0.0000 F   0  0  0  0  0  0  0  0  0  0  0  0
    7.0147   -1.5750    0.0000 O   0  0  0  0  0  0  0  0  0  0  0  0
    3.1177    0.6750    0.0000 O   0  0  0  0  0  0  0  0  0  0  0  0
    8.3137    6.6748    0.0000 O   0  0  0  0  0  0  0  0  0  0  0  0
    5.7158    0.6750    0.0000 N   0  0  0  0  0  0  0  0  0  0  0  0
    4.4167   -9.0747    0.0000 N   0  0  0  0  0  0  0  0  0  0  0  0
    4.4167   -1.5750    0.0000 C   0  0  0  0  0  0  0  0  0  0  0  0
    4.4167   -4.5749    0.0000 C   0  0  0  0  0  0  0  0  0  0  0  0
    5.7158   -2.3250    0.0000 C   0  0  0  0  0  0  0  0  0  0  0  0
    4.4167   -6.0748    0.0000 C   0  0  0  0  0  0  0  0  0  0  0  0
    5.7158   -3.8249    0.0000 C   0  0  0  0  0  0  0  0  0  0  0  0
    4.4167   -0.0750    0.0000 C   0  0  0  0  0  0  0  0  0  0  0  0
    3.1177   -2.3250    0.0000 C   0  0  0  0  0  0  0  0  0  0  0  0
    3.1177   -3.8249    0.0000 C   0  0  0  0  0  0  0  0  0  0  0  0
    3.1177   -6.8248    0.0000 C   0  0  0  0  0  0  0  0  0  0  0  0
    5.7158    2.1749    0.0000 C   0  0  0  0  0  0  0  0  0  0  0  0
    5.7158   -6.8248    0.0000 C   0  0  0  0  0  0  0  0  0  0  0  0
    7.0147    2.9249    0.0000 C   0  0  0  0  0  0  0  0  0  0  0  0
    3.1177   -8.3248    0.0000 C   0  0  0  0  0  0  0  0  0  0  0  0
    7.0147    4.4248    0.0000 C   0  0  0  0  0  0  0  0  0  0  0  0
    5.7158   -8.3248    0.0000 C   0  0  0  0  0  0  0  0  0  0  0  0
    8.3137    5.1748    0.0000 C   0  0  0  0  0  0  0  0  0  0  0  0
    8.3137    2.1749    0.0000 C   0  0  0  0  0  0  0  0  0  0  0  0
    9.6128    4.4248    0.0000 C   0  0  0  0  0  0  0  0  0  0  0  0
    9.6128    2.9249    0.0000 C   0  0  0  0  0  0  0  0  0  0  0  0
    4.4167    2.9249    0.0000 C   0  0  0  0  0  0  0  0  0  0  0  0
    8.3137   -2.3250    0.0000 C   0  0  0  0  0  0  0  0  0  0  0  0
    7.0147    7.4248    0.0000 C   0  0  0  0  0  0  0  0  0  0  0  0
  1 15  1  0  0  0  0
  2  9  1  0  0  0  0
  2 27  1  0  0  0  0
  3 12  2  0  0  0  0
  4 22  1  0  0  0  0
  4 28  1  0  0  0  0
  5 12  1  0  0  0  0
  5 16  1  0  0  0  0
  6 19  1  0  0  0  0
  6 21  2  0  0  0  0
  7  9  1  0  0  0  0
  7 12  1  0  0  0  0
  7 13  2  0  0  0  0
  8 10  1  0  0  0  0
  8 11  1  0  0  0  0
  8 14  2  0  0  0  0
  9 11  2  0  0  0  0
 10 15  1  0  0  0  0
 10 17  2  0  0  0  0
 13 14  1  0  0  0  0
 15 19  2  0  0  0  0
 16 18  1  0  0  0  0
 16 26  1  0  0  0  0
 17 21  1  0  0  0  0
 18 20  2  0  0  0  0
 18 23  1  0  0  0  0
 20 22  1  0  0  0  0
 22 24  2  0  0  0  0
 23 25  2  0  0  0  0
 24 25  1  0  0  0  0
M  END
> <Value>
5.899998417198648

> <Relation>
<

> <SourceURI>
mol:CHEMBL1991188

$$$$

Generated by Molecular Materials Informatics

 35 38  0  0  0  0  0  0  0  0999 V2000
    4.1442   -4.8938    0.0000 S   0  0  0  0  0  0  0  0  0  0  0  0
    2.6442   -4.8938    0.0000 O   0  0  0  0  0  0  0  0  0  0  0  0
    5.6442   -4.8938    0.0000 O   0  0  0  0  0  0  0  0  0  0  0  0
    2.8451    6.3562    0.0000 O   0  5  0  0  0  0  0  0  0  0  0  0
    0.2471    6.3562    0.0000 O   0  0  0  0  0  0  0  0  0  0  0  0
    4.1442   -3.3938    0.0000 N   0  0  0  0  0  0  0  0  0  0  0  0
    2.8451   -1.1438    0.0000 N   0  0  0  0  0  0  0  0  0  0  0  0
    1.5462   -3.3938    0.0000 N   0  0  0  0  0  0  0  0  0  0  0  0
    1.5462    5.6062    0.0000 N   0  3  0  0  0  0  0  0  0  0  0  0
   -4.9491   -5.6438    0.0000 N   0  0  0  0  0  0  0  0  0  0  0  0
    4.1442  -10.8937    0.0000 N   0  0  0  0  0  0  0  0  0  0  0  0
    2.8451   -2.6437    0.0000 C   0  0  0  0  0  0  0  0  0  0  0  0
    1.5462   -0.3938    0.0000 C   0  0  0  0  0  0  0  0  0  0  0  0
    0.2471   -2.6437    0.0000 C   0  0  0  0  0  0  0  0  0  0  0  0
    0.2471   -1.1438    0.0000 C   0  0  0  0  0  0  0  0  0  0  0  0
    4.1442   -6.3938    0.0000 C   0  0  0  0  0  0  0  0  0  0  0  0
    1.5462    1.1062    0.0000 C   0  0  0  0  0  0  0  0  0  0  0  0
   -1.0520   -3.3938    0.0000 C   0  0  0  0  0  0  0  0  0  0  0  0
    0.2471    1.8563    0.0000 C   0  0  0  0  0  0  0  0  0  0  0  0
    2.8451    1.8563    0.0000 C   0  0  0  0  0  0  0  0  0  0  0  0
    5.4433   -7.1437    0.0000 C   0  0  0  0  0  0  0  0  0  0  0  0
    2.8451   -7.1437    0.0000 C   0  0  0  0  0  0  0  0  0  0  0  0
   -1.0520   -4.8938    0.0000 C   0  0  0  0  0  0  0  0  0  0  0  0
   -2.3509   -2.6437    0.0000 C   0  0  0  0  0  0  0  0  0  0  0  0
    1.5462    4.1062    0.0000 C   0  0  0  0  0  0  0  0  0  0  0  0
   -3.6500   -4.8938    0.0000 C   0  0  0  0  0  0  0  0  0  0  0  0
    0.2471    3.3563    0.0000 C   0  0  0  0  0  0  0  0  0  0  0  0
    2.8451    3.3563    0.0000 C   0  0  0  0  0  0  0  0  0  0  0  0
   -2.3509   -5.6438    0.0000 C   0  0  0  0  0  0  0  0  0  0  0  0
   -3.6500   -3.3938    0.0000 C   0  0  0  0  0  0  0  0  0  0  0  0
    5.4433   -8.6438    0.0000 C   0  0  0  0  0  0  0  0  0  0  0  0
    2.8451   -8.6438    0.0000 C   0  0  0  0  0  0  0  0  0  0  0  0
    4.1442   -9.3938    0.0000 C   0  0  0  0  0  0  0  0  0  0  0  0
   -6.2482   -4.8938    0.0000 C   0  0  0  0  0  0  0  0  0  0  0  0
   -4.9491   -7.1437    0.0000 C   0  0  0  0  0  0  0  0  0  0  0  0
  1  2  2  0  0  0  0
  1  3  2  0  0  0  0
  1  6  1  0  0  0  0
  1 16  1  0  0  0  0
  4  9  1  0  0  0  0
  5  9  2  0  0  0  0
  6 12  1  0  0  0  0
  7 12  1  0  0  0  0
  7 13  2  0  0  0  0
  8 12  2  0  0  0  0
  8 14  1  0  0  0  0
  9 25  1  0  0  0  0
 10 26  1  0  0  0  0
 10 34  1  0  0  0  0
 10 35  1  0  0  0  0
 11 33  1  0  0  0  0
 13 15  1  0  0  0  0
 13 17  1  0  0  0  0
 14 15  2  0  0  0  0
 14 18  1  0  0  0  0
 16 21  2  0  0  0  0
 16 22  1  0  0  0  0
 17 19  2  0  0  0  0
 17 20  1  0  0  0  0
 18 23  2  0  0  0  0
 18 24  1  0  0  0  0
 19 27  1  0  0  0  0
 20 28  2  0  0  0  0
 21 31  1  0  0  0  0
 22 32  2  0  0  0  0
 23 29  1  0  0  0  0
 24 30  2  0  0  0  0
 25 27  2  0  0  0  0
 25 28  1  0  0  0  0
 26 29  2  0  0  0  0
 26 30  1  0  0  0  0
 31 33  2  0  0  0  0
 32 33  1  0  0  0  0
M  CHG  2   4  -1   9   1
M  END
> <Value>
5.300000202445418

> <Relation>
<

> <SourceURI>
mol:CHEMBL1980167

$$$$

Generated by Molecular Materials Informatics

 30 34  0  0  0  0  0  0  0  0999 V2000
    5.7413    3.9893    0.0000 F   0  0  0  0  0  0  0  0  0  0  0  0
    0.6587    5.0697    0.0000 F   0  0  0  0  0  0  0  0  0  0  0  0
    8.7051   -0.5425    0.0000 O   0  0  0  0  0  0  0  0  0  0  0  0
   -2.7571    2.4417    0.0000 O   0  0  0  0  0  0  0  0  0  0  0  0
    6.3311   -1.0471    0.0000 N   0  0  0  0  0  0  0  0  0  0  0  0
    1.0636   -1.1869    0.0000 N   0  0  0  0  0  0  0  0  0  0  0  0
    6.5849    1.3668    0.0000 N   0  0  0  0  0  0  0  0  0  0  0  0
    2.3627   -0.4369    0.0000 N   0  0  0  0  0  0  0  0  0  0  0  0
   -1.2445   -1.9369    0.0000 N   0  0  0  0  0  0  0  0  0  0  0  0
   -0.3629   -3.1505    0.0000 N   0  0  0  0  0  0  0  0  0  0  0  0
    4.9609   -0.4369    0.0000 C   0  0  0  0  0  0  0  0  0  0  0  0
    5.1176    1.0548    0.0000 C   0  0  0  0  0  0  0  0  0  0  0  0
    3.6618   -1.1869    0.0000 C   0  0  0  0  0  0  0  0  0  0  0  0
    7.3349    0.0677    0.0000 C   0  0  0  0  0  0  0  0  0  0  0  0
   -0.3629   -0.7234    0.0000 C   0  0  0  0  0  0  0  0  0  0  0  0
    4.0029    2.0586    0.0000 C   0  0  0  0  0  0  0  0  0  0  0  0
    1.0636   -2.6869    0.0000 C   0  0  0  0  0  0  0  0  0  0  0  0
   -0.8264    0.7031    0.0000 C   0  0  0  0  0  0  0  0  0  0  0  0
    3.6618   -2.6869    0.0000 C   0  0  0  0  0  0  0  0  0  0  0  0
    7.0811   -2.3461    0.0000 C   0  0  0  0  0  0  0  0  0  0  0  0
    2.3627   -3.4369    0.0000 C   0  0  0  0  0  0  0  0  0  0  0  0
    4.3147    3.5257    0.0000 C   0  0  0  0  0  0  0  0  0  0  0  0
    8.5484   -2.0341    0.0000 C   0  0  0  0  0  0  0  0  0  0  0  0
    2.5764    1.5949    0.0000 C   0  0  0  0  0  0  0  0  0  0  0  0
    3.2000    4.5295    0.0000 C   0  0  0  0  0  0  0  0  0  0  0  0
   -1.2900    2.1297    0.0000 C   0  0  0  0  0  0  0  0  0  0  0  0
    1.4616    2.5988    0.0000 C   0  0  0  0  0  0  0  0  0  0  0  0
    1.7735    4.0659    0.0000 C   0  0  0  0  0  0  0  0  0  0  0  0
    0.6002    1.1668    0.0000 C   0  0  0  0  0  0  0  0  0  0  0  0
   -2.2529    0.2397    0.0000 C   0  0  0  0  0  0  0  0  0  0  0  0
  1 22  1  0  0  0  0
  2 28  1  0  0  0  0
  3 14  1  0  0  0  0
  3 23  1  0  0  0  0
  4 26  1  0  0  0  0
  5 11  1  0  0  0  0
  5 14  1  0  0  0  0
  5 20  1  0  0  0  0
  6  8  1  0  0  0  0
  6 15  1  0  0  0  0
  6 17  1  0  0  0  0
  7 12  1  0  0  0  0
  7 14  2  0  0  0  0
  8 13  2  0  0  0  0
  9 10  1  0  0  0  0
  9 15  2  0  0  0  0
 10 17  2  0  0  0  0
 11 12  2  0  0  0  0
 11 13  1  0  0  0  0
 12 16  1  0  0  0  0
 13 19  1  0  0  0  0
 15 18  1  0  0  0  0
 16 22  1  0  0  0  0
 16 24  2  0  0  0  0
 17 21  1  0  0  0  0
 18 26  1  0  0  0  0
 18 29  1  0  0  0  0
 18 30  1  0  0  0  0
 19 21  2  0  0  0  0
 20 23  2  0  0  0  0
 22 25  2  0  0  0  0
 24 27  1  0  0  0  0
 25 28  1  0  0  0  0
 27 28  2  0  0  0  0
M  END
> <Value>
5.899998417198648

> <Relation>
<

> <SourceURI>
mol:CHEMBL1972849

$$$$

Generated by Molecular Materials Informatics

 26 27  0  0  0  0  0  0  0  0999 V2000
    8.4273   -7.1556    0.0000 C   0  0  0  0  0  0  0  0  0  0  0  0
    8.4250   -8.6604    0.0000 C   0  0  0  0  0  0  0  0  0  0  0  0
    9.7214   -9.4111    0.0000 N   0  0  0  0  0  0  0  0  0  0  0  0
   11.0292   -8.6593    0.0000 C   0  0  0  0  0  0  0  0  0  0  0  0
   11.0236   -7.1483    0.0000 C   0  0  0  0  0  0  0  0  0  0  0  0
    9.7178   -6.4053    0.0000 C   0  0  0  0  0  0  0  0  0  0  0  0
    9.7107   -4.9052    0.0000 N   0  0  0  0  0  0  0  0  0  0  0  0
   12.3188   -6.3920    0.0000 C   0  0  0  0  0  0  0  0  0  0  0  0
   13.6123   -5.6428    0.0000 N   0  0  0  0  0  0  0  0  0  0  0  0
   12.3289   -9.4082    0.0000 O   0  0  0  0  0  0  0  0  0  0  0  0
   13.6274   -8.6570    0.0000 C   0  0  0  0  0  0  0  0  0  0  0  0
   14.9270   -9.4058    0.0000 C   0  0  0  0  0  0  0  0  0  0  0  0
    7.1250   -9.4086    0.0000 C   0  0  0  0  0  0  0  0  0  0  0  0
    5.8271   -8.6566    0.0000 N   0  0  0  0  0  0  0  0  0  0  0  0
    4.5270   -9.4048    0.0000 C   0  0  0  0  0  0  0  0  0  0  0  0
    3.2291   -8.6528    0.0000 C   0  0  0  0  0  0  0  0  0  0  0  0
    3.2351   -7.1560    0.0000 C   0  0  0  0  0  0  0  0  0  0  0  0
    1.9386   -6.4042    0.0000 C   0  0  0  0  0  0  0  0  0  0  0  0
    0.6367   -7.1523    0.0000 C   0  0  0  0  0  0  0  0  0  0  0  0
    0.6392   -8.6603    0.0000 C   0  0  0  0  0  0  0  0  0  0  0  0
    1.9370   -9.4051    0.0000 C   0  0  0  0  0  0  0  0  0  0  0  0
    7.1229  -10.9085    0.0000 O   0  0  0  0  0  0  0  0  0  0  0  0
    1.9413  -10.9052    0.0000 S   0  0  0  0  0  0  0  0  0  0  0  0
    1.9302  -12.3973    0.0000 N   0  0  0  0  0  0  0  0  0  0  0  0
    3.4412  -10.9083    0.0000 O   0  0  0  0  0  0  0  0  0  0  0  0
    0.4412  -10.9096    0.0000 O   0  0  0  0  0  0  0  0  0  0  0  0
  2 13  1  0  0  0  0
  1  2  2  0  0  0  0
 13 14  1  0  0  0  0
  6  7  1  0  0  0  0
 14 15  1  0  0  0  0
  3  4  2  0  0  0  0
 15 16  1  0  0  0  0
  5  8  1  0  0  0  0
 16 17  2  0  0  0  0
 17 18  1  0  0  0  0
  8  9  3  0  0  0  0
 18 19  2  0  0  0  0
  4  5  1  0  0  0  0
 19 20  1  0  0  0  0
  4 10  1  0  0  0  0
 20 21  2  0  0  0  0
 21 16  1  0  0  0  0
  2  3  1  0  0  0  0
 13 22  2  0  0  0  0
 10 11  1  0  0  0  0
 21 23  1  0  0  0  0
  5  6  2  0  0  0  0
 23 24  1  0  0  0  0
 11 12  1  0  0  0  0
 23 25  2  0  0  0  0
  6  1  1  0  0  0  0
 23 26  2  0  0  0  0
M  END
> <Value>
5.899998417198648

> <Relation>
<

> <SourceURI>
mol:CHEMBL377408

$$$$

Generated by Molecular Materials Informatics

 26 29  0  0  0  0  0  0  0  0999 V2000
   -4.8194    2.3785    0.0000 F   0  0  0  0  0  0  0  0  0  0  0  0
    3.6738    9.8698    0.0000 O   0  0  0  0  0  0  0  0  0  0  0  0
   -0.9579   -3.5253    0.0000 N   0  0  0  0  0  0  0  0  0  0  0  0
    1.7678   -3.8119    0.0000 N   0  0  0  0  0  0  0  0  0  0  0  0
   -2.3484    3.1814    0.0000 N   0  0  0  0  0  0  0  0  0  0  0  0
    0.1225    3.9843    0.0000 N   0  0  0  0  0  0  0  0  0  0  0  0
   -0.9579   -1.0984    0.0000 C   0  0  0  0  0  0  0  0  0  0  0  0
    0.4687   -1.5619    0.0000 C   0  0  0  0  0  0  0  0  0  0  0  0
   -1.4215    0.3283    0.0000 C   0  0  0  0  0  0  0  0  0  0  0  0
    0.4687   -3.0619    0.0000 C   0  0  0  0  0  0  0  0  0  0  0  0
   -1.8395   -2.3119    0.0000 C   0  0  0  0  0  0  0  0  0  0  0  0
   -0.4177    1.4431    0.0000 C   0  0  0  0  0  0  0  0  0  0  0  0
   -2.8886    0.6402    0.0000 C   0  0  0  0  0  0  0  0  0  0  0  0
   -0.8813    2.8696    0.0000 C   0  0  0  0  0  0  0  0  0  0  0  0
    1.7678   -0.8119    0.0000 C   0  0  0  0  0  0  0  0  0  0  0  0
   -3.3523    2.0667    0.0000 C   0  0  0  0  0  0  0  0  0  0  0  0
    3.0667   -1.5619    0.0000 C   0  0  0  0  0  0  0  0  0  0  0  0
    3.0667   -3.0619    0.0000 C   0  0  0  0  0  0  0  0  0  0  0  0
   -0.3412    5.4109    0.0000 C   0  0  0  0  0  0  0  0  0  0  0  0
    0.6627    6.5256    0.0000 C   0  0  0  0  0  0  0  0  0  0  0  0
    0.1990    7.9522    0.0000 C   0  0  0  0  0  0  0  0  0  0  0  0
    2.1298    6.2138    0.0000 C   0  0  0  0  0  0  0  0  0  0  0  0
    2.6699    8.7551    0.0000 C   0  0  0  0  0  0  0  0  0  0  0  0
    1.2028    9.0669    0.0000 C   0  0  0  0  0  0  0  0  0  0  0  0
    3.1336    7.3285    0.0000 C   0  0  0  0  0  0  0  0  0  0  0  0
    3.2101   11.2964    0.0000 C   0  0  0  0  0  0  0  0  0  0  0  0
  1 16  1  0  0  0  0
  2 23  1  0  0  0  0
  2 26  1  0  0  0  0
  3 10  1  0  0  0  0
  3 11  1  0  0  0  0
  4 10  2  0  0  0  0
  4 18  1  0  0  0  0
  5 14  1  0  0  0  0
  5 16  2  0  0  0  0
  6 14  1  0  0  0  0
  6 19  1  0  0  0  0
  7  8  1  0  0  0  0
  7  9  1  0  0  0  0
  7 11  2  0  0  0  0
  8 10  1  0  0  0  0
  8 15  2  0  0  0  0
  9 12  1  0  0  0  0
  9 13  2  0  0  0  0
 12 14  2  0  0  0  0
 13 16  1  0  0  0  0
 15 17  1  0  0  0  0
 17 18  2  0  0  0  0
 19 20  1  0  0  0  0
 20 21  2  0  0  0  0
 20 22  1  0  0  0  0
 21 24  1  0  0  0  0
 22 25  2  0  0  0  0
 23 24  2  0  0  0  0
 23 25  1  0  0  0  0
M  END
> <Value>
5.700000503883016

> <Relation>
=

> <SourceURI>
mol:CHEMBL1986855

$$$$

Generated by Molecular Materials Informatics

 37 40  0  0  0  0  0  0  0  0999 V2000
   -1.0973   -1.6688    0.0000 C   0  0  0  0  0  0  0  0  0  0  0  0
   -1.0993   -3.1732    0.0000 C   0  0  0  0  0  0  0  0  0  0  0  0
    0.2003   -3.9237    0.0000 C   0  0  0  0  0  0  0  0  0  0  0  0
    0.1971   -0.9183    0.0000 C   0  0  0  0  0  0  0  0  0  0  0  0
    1.4978   -1.6623    0.0000 C   0  0  0  0  0  0  0  0  0  0  0  0
    1.4991   -3.1655    0.0000 C   0  0  0  0  0  0  0  0  0  0  0  0
    2.7996   -3.9128    0.0000 N   0  0  0  0  0  0  0  0  0  0  0  0
    4.0998   -3.1586    0.0000 C   0  0  0  0  0  0  0  0  0  0  0  0
    4.0910   -1.6495    0.0000 N   0  0  0  0  0  0  0  0  0  0  0  0
    2.7894   -0.9092    0.0000 C   0  0  0  0  0  0  0  0  0  0  0  0
    2.7814    0.5908    0.0000 N   0  0  0  0  0  0  0  0  0  0  0  0
    4.0765    1.3477    0.0000 C   0  0  0  0  0  0  0  0  0  0  0  0
    5.4534    0.7390    0.0000 C   0  0  0  0  0  0  0  0  0  0  0  0
    6.4525    1.8601    0.0000 C   0  0  0  0  0  0  0  0  0  0  0  0
    5.6925    3.1557    0.0000 N   0  0  0  0  0  0  0  0  0  0  0  0
    4.2263    2.8310    0.0000 N   0  0  0  0  0  0  0  0  0  0  0  0
    7.9452    1.7121    0.0000 C   0  0  0  0  0  0  0  0  0  0  0  0
    8.5636    0.3455    0.0000 C   0  0  0  0  0  0  0  0  0  0  0  0
   10.0563    0.1977    0.0000 N   0  0  0  0  0  0  0  0  0  0  0  0
   10.6745   -1.1690    0.0000 C   0  0  0  0  0  0  0  0  0  0  0  0
    9.7916   -2.3839    0.0000 C   0  0  0  0  0  0  0  0  0  0  0  0
   10.4088   -3.7495    0.0000 C   0  0  0  0  0  0  0  0  0  0  0  0
   11.9030   -3.8984    0.0000 C   0  0  0  0  0  0  0  0  0  0  0  0
   12.7779   -2.6705    0.0000 C   0  0  0  0  0  0  0  0  0  0  0  0
   12.1561   -1.3097    0.0000 C   0  0  0  0  0  0  0  0  0  0  0  0
   14.2712   -2.8130    0.0000 F   0  0  0  0  0  0  0  0  0  0  0  0
   -2.3976   -3.9188    0.0000 O   0  0  0  0  0  0  0  0  0  0  0  0
   -3.6931   -3.1688    0.0000 C   0  0  0  0  0  0  0  0  0  0  0  0
   -4.9885   -3.9188    0.0000 C   0  0  0  0  0  0  0  0  0  0  0  0
   -6.2840   -3.1688    0.0000 C   0  0  0  0  0  0  0  0  0  0  0  0
   -7.5794   -3.9188    0.0000 N   0  0  0  0  0  0  0  0  0  0  0  0
   -8.8749   -3.1688    0.0000 C   0  0  0  0  0  0  0  0  0  0  0  0
  -10.1703   -3.9188    0.0000 C   0  0  0  0  0  0  0  0  0  0  0  0
  -11.4658   -3.1688    0.0000 O   0  0  0  0  0  0  0  0  0  0  0  0
   -7.5794   -5.4188    0.0000 C   0  0  0  0  0  0  0  0  0  0  0  0
   -6.2803   -6.1688    0.0000 C   0  0  0  0  0  0  0  0  0  0  0  0
    7.6892   -0.8732    0.0000 O   0  0  0  0  0  0  0  0  0  0  0  0
  5  4  2  0  0  0  0
 17 18  1  0  0  0  0
  8  9  1  0  0  0  0
 18 19  1  0  0  0  0
  4  1  1  0  0  0  0
 19 20  1  0  0  0  0
  9 10  2  0  0  0  0
 20 21  2  0  0  0  0
 10  5  1  0  0  0  0
 21 22  1  0  0  0  0
 22 23  2  0  0  0  0
 10 11  1  0  0  0  0
 23 24  1  0  0  0  0
  2  3  1  0  0  0  0
 24 25  2  0  0  0  0
 25 20  1  0  0  0  0
 11 12  1  0  0  0  0
 24 26  1  0  0  0  0
 13 14  2  0  0  0  0
  2 27  1  0  0  0  0
  5  6  1  0  0  0  0
 27 28  1  0  0  0  0
  3  6  2  0  0  0  0
 28 29  1  0  0  0  0
  6  7  1  0  0  0  0
 29 30  1  0  0  0  0
  1  2  2  0  0  0  0
 30 31  1  0  0  0  0
 12 13  1  0  0  0  0
 31 32  1  0  0  0  0
 14 15  1  0  0  0  0
 32 33  1  0  0  0  0
 15 16  1  0  0  0  0
 33 34  1  0  0  0  0
 16 12  2  0  0  0  0
 31 35  1  0  0  0  0
  7  8  2  0  0  0  0
 35 36  1  0  0  0  0
 14 17  1  0  0  0  0
 18 37  2  0  0  0  0
M  END
> <Value>
5.59999938302362

> <Relation>
<

> <SourceURI>
mol:CHEMBL215152

$$$$

Generated by Molecular Materials Informatics

 27 30  0  0  0  0  0  0  0  0999 V2000
    9.8295    2.1533    0.0000 C   0  0  0  0  0  0  0  0  0  0  0  0
    9.8272    0.6474    0.0000 C   0  0  0  0  0  0  0  0  0  0  0  0
   11.1259   -0.0999    0.0000 C   0  0  0  0  0  0  0  0  0  0  0  0
   12.4277    0.6483    0.0000 C   0  0  0  0  0  0  0  0  0  0  0  0
   12.4219    2.1607    0.0000 C   0  0  0  0  0  0  0  0  0  0  0  0
   11.1223    2.9088    0.0000 C   0  0  0  0  0  0  0  0  0  0  0  0
   13.7169    2.9208    0.0000 N   0  0  0  0  0  0  0  0  0  0  0  0
   15.0178    2.1714    0.0000 C   0  0  0  0  0  0  0  0  0  0  0  0
   16.3209    2.9315    0.0000 N   0  0  0  0  0  0  0  0  0  0  0  0
   15.0240    0.6701    0.0000 O   0  0  0  0  0  0  0  0  0  0  0  0
   17.6219    2.1820    0.0000 C   0  0  0  0  0  0  0  0  0  0  0  0
   17.6219    0.6830    0.0000 C   0  0  0  0  0  0  0  0  0  0  0  0
   18.9212   -0.0579    0.0000 C   0  0  0  0  0  0  0  0  0  0  0  0
   20.2179    0.6939    0.0000 C   0  0  0  0  0  0  0  0  0  0  0  0
   20.2065    2.2040    0.0000 C   0  0  0  0  0  0  0  0  0  0  0  0
   18.9059    2.9373    0.0000 C   0  0  0  0  0  0  0  0  0  0  0  0
    8.5259   -0.1045    0.0000 C   0  0  0  0  0  0  0  0  0  0  0  0
    6.9039   -1.9040    0.0000 S   0  0  0  0  0  0  0  0  0  0  0  0
    8.3694   -1.5967    0.0000 C   0  0  0  0  0  0  0  0  0  0  0  0
    6.1502   -0.6054    0.0000 C   0  0  0  0  0  0  0  0  0  0  0  0
    7.1550    0.4988    0.0000 C   0  0  0  0  0  0  0  0  0  0  0  0
    6.6942    1.9174    0.0000 C   0  0  0  0  0  0  0  0  0  0  0  0
    5.2375    2.2340    0.0000 N   0  0  0  0  0  0  0  0  0  0  0  0
    4.2342    1.1116    0.0000 C   0  0  0  0  0  0  0  0  0  0  0  0
    4.7008   -0.3021    0.0000 C   0  0  0  0  0  0  0  0  0  0  0  0
    7.7033    3.0289    0.0000 N   0  0  0  0  0  0  0  0  0  0  0  0
   21.5067    2.9607    0.0000 F   0  0  0  0  0  0  0  0  0  0  0  0
  1  2  2  0  0  0  0
 13 14  2  0  0  0  0
  5  7  1  0  0  0  0
 14 15  1  0  0  0  0
  3  4  2  0  0  0  0
 15 16  2  0  0  0  0
 16 11  1  0  0  0  0
 17 21  1  0  0  0  0
  7  8  1  0  0  0  0
  8  9  1  0  0  0  0
 20 18  1  0  0  0  0
 18 19  1  0  0  0  0
 19 17  2  0  0  0  0
  2 17  1  0  0  0  0
  4  5  1  0  0  0  0
  8 10  2  0  0  0  0
 20 21  2  0  0  0  0
  2  3  1  0  0  0  0
 21 22  1  0  0  0  0
  9 11  1  0  0  0  0
 22 23  2  0  0  0  0
  5  6  2  0  0  0  0
 23 24  1  0  0  0  0
 11 12  2  0  0  0  0
 24 25  2  0  0  0  0
 25 20  1  0  0  0  0
  6  1  1  0  0  0  0
 22 26  1  0  0  0  0
 12 13  1  0  0  0  0
 15 27  1  0  0  0  0
M  END
> <Value>
5.899998417198648

> <Relation>
<

> <SourceURI>
mol:CHEMBL231209

$$$$

Generated by Molecular Materials Informatics

 27 30  0  0  0  0  0  0  0  0999 V2000
   -6.8535   -8.2193    0.0000 Br  0  0  0  0  0  0  0  0  0  0  0  0
    0.7929    5.1294    0.0000 S   0  0  0  0  0  0  0  0  0  0  0  0
   -3.5322   -2.2011    0.0000 O   0  0  0  0  0  0  0  0  0  0  0  0
    4.8176    3.1658    0.0000 N   0  0  0  0  0  0  0  0  0  0  0  0
    3.5186    0.9158    0.0000 N   0  0  0  0  0  0  0  0  0  0  0  0
   -1.0613   -3.0040    0.0000 N   0  0  0  0  0  0  0  0  0  0  0  0
   -2.9920   -4.7424    0.0000 N   0  0  0  0  0  0  0  0  0  0  0  0
    2.2195    3.1658    0.0000 C   0  0  0  0  0  0  0  0  0  0  0  0
    0.7929    2.7023    0.0000 C   0  0  0  0  0  0  0  0  0  0  0  0
    2.2195    4.6658    0.0000 C   0  0  0  0  0  0  0  0  0  0  0  0
    0.3295    1.2758    0.0000 C   0  0  0  0  0  0  0  0  0  0  0  0
    3.5186    2.4158    0.0000 C   0  0  0  0  0  0  0  0  0  0  0  0
   -0.0887    3.9158    0.0000 C   0  0  0  0  0  0  0  0  0  0  0  0
    3.5186    5.4158    0.0000 C   0  0  0  0  0  0  0  0  0  0  0  0
    1.3331    0.1611    0.0000 C   0  0  0  0  0  0  0  0  0  0  0  0
   -1.1378    0.9640    0.0000 C   0  0  0  0  0  0  0  0  0  0  0  0
    4.8176    4.6658    0.0000 C   0  0  0  0  0  0  0  0  0  0  0  0
   -0.5976   -1.5775    0.0000 C   0  0  0  0  0  0  0  0  0  0  0  0
    0.8695   -1.2655    0.0000 C   0  0  0  0  0  0  0  0  0  0  0  0
   -1.6015   -0.4627    0.0000 C   0  0  0  0  0  0  0  0  0  0  0  0
   -2.5284   -3.3158    0.0000 C   0  0  0  0  0  0  0  0  0  0  0  0
   -4.4591   -5.0544    0.0000 C   0  0  0  0  0  0  0  0  0  0  0  0
   -4.9227   -6.4809    0.0000 C   0  0  0  0  0  0  0  0  0  0  0  0
   -6.3900   -6.7928    0.0000 C   0  0  0  0  0  0  0  0  0  0  0  0
   -5.4629   -3.9397    0.0000 C   0  0  0  0  0  0  0  0  0  0  0  0
   -7.3936   -5.6780    0.0000 C   0  0  0  0  0  0  0  0  0  0  0  0
   -6.9302   -4.2515    0.0000 C   0  0  0  0  0  0  0  0  0  0  0  0
  1 24  1  0  0  0  0
  2 10  1  0  0  0  0
  2 13  1  0  0  0  0
  3 21  2  0  0  0  0
  4 12  2  0  0  0  0
  4 17  1  0  0  0  0
  5 12  1  0  0  0  0
  6 18  1  0  0  0  0
  6 21  1  0  0  0  0
  7 21  1  0  0  0  0
  7 22  1  0  0  0  0
  8  9  1  0  0  0  0
  8 10  2  0  0  0  0
  8 12  1  0  0  0  0
  9 11  1  0  0  0  0
  9 13  2  0  0  0  0
 10 14  1  0  0  0  0
 11 15  2  0  0  0  0
 11 16  1  0  0  0  0
 14 17  2  0  0  0  0
 15 19  1  0  0  0  0
 16 20  2  0  0  0  0
 18 19  2  0  0  0  0
 18 20  1  0  0  0  0
 22 23  1  0  0  0  0
 22 25  2  0  0  0  0
 23 24  2  0  0  0  0
 24 26  1  0  0  0  0
 25 27  1  0  0  0  0
 26 27  2  0  0  0  0
M  END
> <Value>
5.899998417198648

> <Relation>
<

> <SourceURI>
mol:CHEMBL1976220

$$$$

Generated by Molecular Materials Informatics

 28 30  0  0  0  0  0  0  0  0999 V2000
   -8.5085  -12.0638    0.0000 F   0  0  0  0  0  0  0  0  0  0  0  0
   -6.4595  -12.6129    0.0000 F   0  0  0  0  0  0  0  0  0  0  0  0
   -7.9594  -10.0148    0.0000 F   0  0  0  0  0  0  0  0  0  0  0  0
    1.8836   -0.0641    0.0000 O   0  0  0  0  0  0  0  0  0  0  0  0
   -2.0134   -6.8139    0.0000 N   0  0  0  0  0  0  0  0  0  0  0  0
   -4.6115   -6.8139    0.0000 N   0  0  0  0  0  0  0  0  0  0  0  0
   -0.8987   -9.3175    0.0000 N   0  0  0  0  0  0  0  0  0  0  0  0
   -5.9106   -9.0639    0.0000 N   0  0  0  0  0  0  0  0  0  0  0  0
   -3.3125   -4.5640    0.0000 N   0  0  0  0  0  0  0  0  0  0  0  0
    3.1824   -2.3141    0.0000 N   0  0  0  0  0  0  0  0  0  0  0  0
   -3.3125   -9.0639    0.0000 C   0  0  0  0  0  0  0  0  0  0  0  0
   -2.0134   -8.3139    0.0000 C   0  0  0  0  0  0  0  0  0  0  0  0
   -4.6115   -8.3139    0.0000 C   0  0  0  0  0  0  0  0  0  0  0  0
   -3.3125   -6.0640    0.0000 C   0  0  0  0  0  0  0  0  0  0  0  0
   -3.0007  -10.5311    0.0000 C   0  0  0  0  0  0  0  0  0  0  0  0
   -1.5089  -10.6878    0.0000 C   0  0  0  0  0  0  0  0  0  0  0  0
   -2.0134   -3.8140    0.0000 C   0  0  0  0  0  0  0  0  0  0  0  0
   -5.9106  -10.5638    0.0000 C   0  0  0  0  0  0  0  0  0  0  0  0
   -7.2094  -11.3138    0.0000 C   0  0  0  0  0  0  0  0  0  0  0  0
    0.5845   -2.3141    0.0000 C   0  0  0  0  0  0  0  0  0  0  0  0
   -2.0134   -2.3141    0.0000 C   0  0  0  0  0  0  0  0  0  0  0  0
   -0.7145   -4.5640    0.0000 C   0  0  0  0  0  0  0  0  0  0  0  0
   -0.7145   -1.5641    0.0000 C   0  0  0  0  0  0  0  0  0  0  0  0
    0.5845   -3.8140    0.0000 C   0  0  0  0  0  0  0  0  0  0  0  0
    1.8836   -1.5641    0.0000 C   0  0  0  0  0  0  0  0  0  0  0  0
    4.4815   -1.5641    0.0000 C   0  0  0  0  0  0  0  0  0  0  0  0
    5.7805   -2.3141    0.0000 C   0  0  0  0  0  0  0  0  0  0  0  0
    7.0796   -1.5641    0.0000 C   0  0  0  0  0  0  0  0  0  0  0  0
  1 19  1  0  0  0  0
  2 19  1  0  0  0  0
  3 19  1  0  0  0  0
  4 25  2  0  0  0  0
  5 12  2  0  0  0  0
  5 14  1  0  0  0  0
  6 13  1  0  0  0  0
  6 14  2  0  0  0  0
  7 12  1  0  0  0  0
  7 16  1  0  0  0  0
  8 13  1  0  0  0  0
  8 18  1  0  0  0  0
  9 14  1  0  0  0  0
  9 17  1  0  0  0  0
 10 25  1  0  0  0  0
 10 26  1  0  0  0  0
 11 12  1  0  0  0  0
 11 13  2  0  0  0  0
 11 15  1  0  0  0  0
 15 16  2  0  0  0  0
 17 21  2  0  0  0  0
 17 22  1  0  0  0  0
 18 19  1  0  0  0  0
 20 23  2  0  0  0  0
 20 24  1  0  0  0  0
 20 25  1  0  0  0  0
 21 23  1  0  0  0  0
 22 24  2  0  0  0  0
 26 27  1  0  0  0  0
 27 28  1  0  0  0  0
M  END
> <Value>
6.399996913372259

> <Relation>
=

> <SourceURI>
mol:CHEMBL2006765

$$$$

Generated by Molecular Materials Informatics

 31 35  0  0  0  0  0  0  0  0999 V2000
   19.4896  -11.5753    0.0000 C   0  0  0  0  0  0  0  0  0  0  0  0
   19.4872  -13.0800    0.0000 C   0  0  0  0  0  0  0  0  0  0  0  0
   20.7837  -13.8307    0.0000 C   0  0  0  0  0  0  0  0  0  0  0  0
   22.0914  -13.0791    0.0000 C   0  0  0  0  0  0  0  0  0  0  0  0
   22.0855  -11.5681    0.0000 C   0  0  0  0  0  0  0  0  0  0  0  0
   20.7800  -10.8249    0.0000 C   0  0  0  0  0  0  0  0  0  0  0  0
   18.1874  -13.8282    0.0000 N   0  0  0  0  0  0  0  0  0  0  0  0
   18.1850  -15.3281    0.0000 C   0  0  0  0  0  0  0  0  0  0  0  0
   18.1786  -18.3226    0.0000 N   0  0  0  0  0  0  0  0  0  0  0  0
   19.4831  -17.5665    0.0000 C   0  0  0  0  0  0  0  0  0  0  0  0
   19.4794  -16.0705    0.0000 N   0  0  0  0  0  0  0  0  0  0  0  0
   16.8797  -17.5693    0.0000 C   0  0  0  0  0  0  0  0  0  0  0  0
   16.8788  -16.0692    0.0000 C   0  0  0  0  0  0  0  0  0  0  0  0
   15.4516  -15.6064    0.0000 C   0  0  0  0  0  0  0  0  0  0  0  0
   14.5707  -16.8209    0.0000 N   0  0  0  0  0  0  0  0  0  0  0  0
   15.4534  -18.0338    0.0000 N   0  0  0  0  0  0  0  0  0  0  0  0
   14.6927  -19.3252    0.0000 C   0  0  0  0  0  0  0  0  0  0  0  0
   13.1920  -19.3070    0.0000 C   0  0  0  0  0  0  0  0  0  0  0  0
   12.4315  -20.5967    0.0000 C   0  0  0  0  0  0  0  0  0  0  0  0
   13.1695  -21.9031    0.0000 C   0  0  0  0  0  0  0  0  0  0  0  0
   14.6759  -21.9115    0.0000 C   0  0  0  0  0  0  0  0  0  0  0  0
   15.4298  -20.6205    0.0000 C   0  0  0  0  0  0  0  0  0  0  0  0
   18.1899  -10.8266    0.0000 C   0  0  0  0  0  0  0  0  0  0  0  0
   23.3911  -13.8278    0.0000 C   0  0  0  0  0  0  0  0  0  0  0  0
   23.3923  -15.3277    0.0000 O   0  0  0  0  0  0  0  0  0  0  0  0
   24.6893  -13.0767    0.0000 N   0  0  0  0  0  0  0  0  0  0  0  0
   24.6880  -11.5766    0.0000 C   0  0  0  0  0  0  0  0  0  0  0  0
   25.8966  -10.6953    0.0000 C   0  0  0  0  0  0  0  0  0  0  0  0
   25.4317   -9.2692    0.0000 C   0  0  0  0  0  0  0  0  0  0  0  0
   23.9316   -9.2705    0.0000 O   0  0  0  0  0  0  0  0  0  0  0  0
   23.4696  -10.6975    0.0000 N   0  0  0  0  0  0  0  0  0  0  0  0
 13 14  1  0  0  0  0
 14 15  2  0  0  0  0
 15 16  1  0  0  0  0
 16 12  1  0  0  0  0
  7  8  1  0  0  0  0
 16 17  1  0  0  0  0
  8 13  2  0  0  0  0
 17 18  2  0  0  0  0
 18 19  1  0  0  0  0
 12  9  2  0  0  0  0
 19 20  2  0  0  0  0
  4  5  1  0  0  0  0
 20 21  1  0  0  0  0
  9 10  1  0  0  0  0
 21 22  2  0  0  0  0
 22 17  1  0  0  0  0
  2  3  1  0  0  0  0
  1 23  1  0  0  0  0
 10 11  2  0  0  0  0
  4 24  1  0  0  0  0
 11  8  1  0  0  0  0
 24 25  2  0  0  0  0
 12 13  1  0  0  0  0
 24 26  1  0  0  0  0
  5  6  2  0  0  0  0
 26 27  1  0  0  0  0
 27 28  1  0  0  0  0
  6  1  1  0  0  0  0
  1  2  2  0  0  0  0
  2  7  1  0  0  0  0
  3  4  2  0  0  0  0
 28 29  2  0  0  0  0
 29 30  1  0  0  0  0
 30 31  1  0  0  0  0
 31 27  2  0  0  0  0
M  END
> <Value>
5.899998417198648

> <Relation>
<

> <SourceURI>
mol:CHEMBL259922

$$$$

Generated by Molecular Materials Informatics

 36 41  0  0  0  0  0  0  0  0999 V2000
   -2.6927    7.4727    0.0000 O   0  0  0  0  0  0  0  0  0  0  0  0
   -0.8385   -0.6606    0.0000 N   0  0  0  0  0  0  0  0  0  0  0  0
    1.8871   -0.9471    0.0000 N   0  0  0  0  0  0  0  0  0  0  0  0
    3.1860    1.3029    0.0000 N   0  0  0  0  0  0  0  0  0  0  0  0
    1.8871    3.5529    0.0000 N   0  0  0  0  0  0  0  0  0  0  0  0
   -2.6927   -6.3670    0.0000 N   0  0  0  0  0  0  0  0  0  0  0  0
   -3.6198   -9.2203    0.0000 N   0  0  0  0  0  0  0  0  0  0  0  0
    0.5880    1.3029    0.0000 C   0  0  0  0  0  0  0  0  0  0  0  0
    0.5880   -0.1971    0.0000 C   0  0  0  0  0  0  0  0  0  0  0  0
   -0.8385    1.7663    0.0000 C   0  0  0  0  0  0  0  0  0  0  0  0
   -1.7202    0.5529    0.0000 C   0  0  0  0  0  0  0  0  0  0  0  0
    1.8871    2.0529    0.0000 C   0  0  0  0  0  0  0  0  0  0  0  0
   -1.3022   -2.0873    0.0000 C   0  0  0  0  0  0  0  0  0  0  0  0
   -1.3022    3.1930    0.0000 C   0  0  0  0  0  0  0  0  0  0  0  0
    3.1860   -0.1971    0.0000 C   0  0  0  0  0  0  0  0  0  0  0  0
   -0.2983   -3.2021    0.0000 C   0  0  0  0  0  0  0  0  0  0  0  0
   -2.7692   -2.3991    0.0000 C   0  0  0  0  0  0  0  0  0  0  0  0
   -2.7692    3.5049    0.0000 C   0  0  0  0  0  0  0  0  0  0  0  0
   -0.2983    4.3078    0.0000 C   0  0  0  0  0  0  0  0  0  0  0  0
   -2.2291   -4.9404    0.0000 C   0  0  0  0  0  0  0  0  0  0  0  0
   -0.7620   -4.6286    0.0000 C   0  0  0  0  0  0  0  0  0  0  0  0
   -3.2329   -3.8257    0.0000 C   0  0  0  0  0  0  0  0  0  0  0  0
   -2.2291    6.0461    0.0000 C   0  0  0  0  0  0  0  0  0  0  0  0
   -3.2329    4.9314    0.0000 C   0  0  0  0  0  0  0  0  0  0  0  0
   -0.7620    5.7343    0.0000 C   0  0  0  0  0  0  0  0  0  0  0  0
   -1.6889   -7.4817    0.0000 C   0  0  0  0  0  0  0  0  0  0  0  0
   -4.1598   -6.6790    0.0000 C   0  0  0  0  0  0  0  0  0  0  0  0
   -1.6889    8.5874    0.0000 C   0  0  0  0  0  0  0  0  0  0  0  0
   -2.1525   -8.9083    0.0000 C   0  0  0  0  0  0  0  0  0  0  0  0
   -4.6234   -8.1055    0.0000 C   0  0  0  0  0  0  0  0  0  0  0  0
   -2.1525   10.0140    0.0000 C   0  0  0  0  0  0  0  0  0  0  0  0
   -0.2218    8.2756    0.0000 C   0  0  0  0  0  0  0  0  0  0  0  0
   -4.0833  -10.6468    0.0000 C   0  0  0  0  0  0  0  0  0  0  0  0
   -1.1489   11.1287    0.0000 C   0  0  0  0  0  0  0  0  0  0  0  0
    0.7820    9.3903    0.0000 C   0  0  0  0  0  0  0  0  0  0  0  0
    0.3184   10.8169    0.0000 C   0  0  0  0  0  0  0  0  0  0  0  0
  1 23  1  0  0  0  0
  1 28  1  0  0  0  0
  2  9  1  0  0  0  0
  2 11  1  0  0  0  0
  2 13  1  0  0  0  0
  3  9  2  0  0  0  0
  3 15  1  0  0  0  0
  4 12  1  0  0  0  0
  4 15  2  0  0  0  0
  5 12  1  0  0  0  0
  6 20  1  0  0  0  0
  6 26  1  0  0  0  0
  6 27  1  0  0  0  0
  7 29  1  0  0  0  0
  7 30  1  0  0  0  0
  7 33  1  0  0  0  0
  8  9  1  0  0  0  0
  8 10  1  0  0  0  0
  8 12  2  0  0  0  0
 10 11  2  0  0  0  0
 10 14  1  0  0  0  0
 13 16  1  0  0  0  0
 13 17  1  0  0  0  0
 14 18  2  0  0  0  0
 14 19  1  0  0  0  0
 16 21  1  0  0  0  0
 17 22  1  0  0  0  0
 18 24  1  0  0  0  0
 19 25  2  0  0  0  0
 20 21  1  0  0  0  0
 20 22  1  0  0  0  0
 23 24  2  0  0  0  0
 23 25  1  0  0  0  0
 26 29  1  0  0  0  0
 27 30  1  0  0  0  0
 28 31  2  0  0  0  0
 28 32  1  0  0  0  0
 31 34  1  0  0  0  0
 32 35  2  0  0  0  0
 34 36  2  0  0  0  0
 35 36  1  0  0  0  0
M  END
> <Value>
5.899998417198648

> <Relation>
<

> <SourceURI>
mol:CHEMBL1997617

$$$$

Generated by Molecular Materials Informatics

 34 37  0  0  0  0  0  0  0  0999 V2000
   -2.7139   -3.2294    0.0000 O   0  0  0  0  0  0  0  0  0  0  0  0
    3.6924    3.1187    0.0000 O   0  0  0  0  0  0  0  0  0  0  0  0
   -0.3323   -1.8449    0.0000 N   0  0  0  0  0  0  0  0  0  0  0  0
   -0.3323    0.5822    0.0000 N   0  0  0  0  0  0  0  0  0  0  0  0
   -2.7139   -0.6313    0.0000 N   0  0  0  0  0  0  0  0  0  0  0  0
    4.9913    0.8687    0.0000 N   0  0  0  0  0  0  0  0  0  0  0  0
   -8.7139   -5.8274    0.0000 N   0  0  0  0  0  0  0  0  0  0  0  0
    1.0942   -1.3813    0.0000 C   0  0  0  0  0  0  0  0  0  0  0  0
    1.0942    0.1187    0.0000 C   0  0  0  0  0  0  0  0  0  0  0  0
   -1.2139   -0.6313    0.0000 C   0  0  0  0  0  0  0  0  0  0  0  0
    3.6924    0.1187    0.0000 C   0  0  0  0  0  0  0  0  0  0  0  0
    2.3933    0.8687    0.0000 C   0  0  0  0  0  0  0  0  0  0  0  0
    2.3933   -2.1313    0.0000 C   0  0  0  0  0  0  0  0  0  0  0  0
    3.6924   -1.3813    0.0000 C   0  0  0  0  0  0  0  0  0  0  0  0
   -0.7957   -3.2714    0.0000 C   0  0  0  0  0  0  0  0  0  0  0  0
   -3.4639   -1.9303    0.0000 C   0  0  0  0  0  0  0  0  0  0  0  0
    4.9913    2.3687    0.0000 C   0  0  0  0  0  0  0  0  0  0  0  0
   -4.9639   -1.9303    0.0000 C   0  0  0  0  0  0  0  0  0  0  0  0
    6.2904    3.1187    0.0000 C   0  0  0  0  0  0  0  0  0  0  0  0
    0.2079   -4.3862    0.0000 C   0  0  0  0  0  0  0  0  0  0  0  0
    6.2904    0.1187    0.0000 C   0  0  0  0  0  0  0  0  0  0  0  0
   -5.7139   -3.2294    0.0000 C   0  0  0  0  0  0  0  0  0  0  0  0
   -5.7139   -0.6313    0.0000 C   0  0  0  0  0  0  0  0  0  0  0  0
   -7.2139   -3.2294    0.0000 C   0  0  0  0  0  0  0  0  0  0  0  0
    6.2904    4.6187    0.0000 C   0  0  0  0  0  0  0  0  0  0  0  0
    7.5895    2.3687    0.0000 C   0  0  0  0  0  0  0  0  0  0  0  0
   -7.2139   -0.6313    0.0000 C   0  0  0  0  0  0  0  0  0  0  0  0
   -7.9639   -1.9303    0.0000 C   0  0  0  0  0  0  0  0  0  0  0  0
   -0.2558   -5.8127    0.0000 C   0  0  0  0  0  0  0  0  0  0  0  0
    7.5895    5.3687    0.0000 C   0  0  0  0  0  0  0  0  0  0  0  0
    8.8884    3.1187    0.0000 C   0  0  0  0  0  0  0  0  0  0  0  0
   -7.9639   -4.5285    0.0000 C   0  0  0  0  0  0  0  0  0  0  0  0
    8.8884    4.6187    0.0000 C   0  0  0  0  0  0  0  0  0  0  0  0
    0.7481   -6.9274    0.0000 C   0  0  0  0  0  0  0  0  0  0  0  0
  1 16  2  0  0  0  0
  2 17  2  0  0  0  0
  3  8  1  0  0  0  0
  3 10  1  0  0  0  0
  3 15  1  0  0  0  0
  4  9  1  0  0  0  0
  4 10  2  0  0  0  0
  5 10  1  0  0  0  0
  5 16  1  0  0  0  0
  6 11  1  0  0  0  0
  6 17  1  0  0  0  0
  6 21  1  0  0  0  0
  7 32  3  0  0  0  0
  8  9  1  0  0  0  0
  8 13  2  0  0  0  0
  9 12  2  0  0  0  0
 11 12  1  0  0  0  0
 11 14  2  0  0  0  0
 13 14  1  0  0  0  0
 15 20  1  0  0  0  0
 16 18  1  0  0  0  0
 17 19  1  0  0  0  0
 18 22  1  0  0  0  0
 18 23  2  0  0  0  0
 19 25  1  0  0  0  0
 19 26  1  0  0  0  0
 20 29  1  0  0  0  0
 22 24  2  0  0  0  0
 23 27  1  0  0  0  0
 24 28  1  0  0  0  0
 24 32  1  0  0  0  0
 25 30  1  0  0  0  0
 26 31  1  0  0  0  0
 27 28  2  0  0  0  0
 29 34  1  0  0  0  0
 30 33  1  0  0  0  0
 31 33  1  0  0  0  0
M  END
> <Value>
5.899998417198648

> <Relation>
<

> <SourceURI>
mol:CHEMBL1969301

$$$$

Generated by Molecular Materials Informatics

 25 28  0  0  0  0  0  0  0  0999 V2000
    4.8860    1.0976    0.0000 S   0  0  0  0  0  0  0  0  0  0  0  0
   -2.8116    1.8887    0.0000 O   0  0  0  0  0  0  0  0  0  0  0  0
   -2.8116    4.3158    0.0000 O   0  0  0  0  0  0  0  0  0  0  0  0
    9.0013   -2.5637    0.0000 O   0  0  0  0  0  0  0  0  0  0  0  0
    2.1287   -2.4309    0.0000 N   0  0  0  0  0  0  0  0  0  0  0  0
    0.1980   -0.6924    0.0000 N   0  0  0  0  0  0  0  0  0  0  0  0
    8.4611   -5.1049    0.0000 N   0  0  0  0  0  0  0  0  0  0  0  0
    2.6689    0.1105    0.0000 C   0  0  0  0  0  0  0  0  0  0  0  0
    2.5120    1.6022    0.0000 C   0  0  0  0  0  0  0  0  0  0  0  0
    4.1360   -0.2015    0.0000 C   0  0  0  0  0  0  0  0  0  0  0  0
    1.2131    2.3522    0.0000 C   0  0  0  0  0  0  0  0  0  0  0  0
    1.6651   -1.0042    0.0000 C   0  0  0  0  0  0  0  0  0  0  0  0
    4.5996   -1.6280    0.0000 C   0  0  0  0  0  0  0  0  0  0  0  0
    3.8824    2.2123    0.0000 C   0  0  0  0  0  0  0  0  0  0  0  0
   -1.3851    2.3522    0.0000 C   0  0  0  0  0  0  0  0  0  0  0  0
   -0.0860    1.6022    0.0000 C   0  0  0  0  0  0  0  0  0  0  0  0
   -1.3851    3.8522    0.0000 C   0  0  0  0  0  0  0  0  0  0  0  0
    1.2131    3.8522    0.0000 C   0  0  0  0  0  0  0  0  0  0  0  0
    3.5958   -2.7428    0.0000 C   0  0  0  0  0  0  0  0  0  0  0  0
   -0.0860    4.6022    0.0000 C   0  0  0  0  0  0  0  0  0  0  0  0
    6.0667   -1.9398    0.0000 C   0  0  0  0  0  0  0  0  0  0  0  0
   -3.6933    3.1022    0.0000 C   0  0  0  0  0  0  0  0  0  0  0  0
    6.5304   -3.3664    0.0000 C   0  0  0  0  0  0  0  0  0  0  0  0
    7.9976   -3.6784    0.0000 C   0  0  0  0  0  0  0  0  0  0  0  0
    9.9284   -5.4168    0.0000 C   0  0  0  0  0  0  0  0  0  0  0  0
  1 10  1  0  0  0  0
  1 14  1  0  0  0  0
  2 15  1  0  0  0  0
  2 22  1  0  0  0  0
  3 17  1  0  0  0  0
  3 22  1  0  0  0  0
  4 24  2  0  0  0  0
  5 12  2  0  0  0  0
  5 19  1  0  0  0  0
  6 12  1  0  0  0  0
  7 24  1  0  0  0  0
  7 25  1  0  0  0  0
  8  9  1  0  0  0  0
  8 10  2  0  0  0  0
  8 12  1  0  0  0  0
  9 11  1  0  0  0  0
  9 14  2  0  0  0  0
 10 13  1  0  0  0  0
 11 16  1  0  0  0  0
 11 18  2  0  0  0  0
 13 19  2  0  0  0  0
 21 13  1  0  0  0  0
 15 16  2  0  0  0  0
 15 17  1  0  0  0  0
 17 20  2  0  0  0  0
 18 20  1  0  0  0  0
 21 23  2  0  0  0  0
 23 24  1  0  0  0  0
M  END
> <Value>
5.899998417198648

> <Relation>
<

> <SourceURI>
mol:CHEMBL1993243

$$$$

Generated by Molecular Materials Informatics

 26 30  0  0  0  0  0  0  0  0999 V2000
   -2.2631   -6.3874    0.0000 O   0  0  0  0  0  0  0  0  0  0  0  0
   -6.9531    5.2022    0.0000 O   0  0  0  0  0  0  0  0  0  0  0  0
   -2.2631   -3.9603    0.0000 N   0  0  0  0  0  0  0  0  0  0  0  0
   -5.2709    3.1250    0.0000 N   0  0  0  0  0  0  0  0  0  0  0  0
   -4.6449   -5.1739    0.0000 N   0  0  0  0  0  0  0  0  0  0  0  0
   -6.8949    1.3213    0.0000 C   0  0  0  0  0  0  0  0  0  0  0  0
   -7.6449    0.0222    0.0000 C   0  0  0  0  0  0  0  0  0  0  0  0
   -7.6449    2.6202    0.0000 C   0  0  0  0  0  0  0  0  0  0  0  0
   -6.8949   -1.2768    0.0000 C   0  0  0  0  0  0  0  0  0  0  0  0
   -6.6411    3.7350    0.0000 C   0  0  0  0  0  0  0  0  0  0  0  0
   -0.8365   -5.9239    0.0000 C   0  0  0  0  0  0  0  0  0  0  0  0
   -0.8365   -4.4239    0.0000 C   0  0  0  0  0  0  0  0  0  0  0  0
   -3.1449   -5.1739    0.0000 C   0  0  0  0  0  0  0  0  0  0  0  0
   -5.4276    1.6331    0.0000 C   0  0  0  0  0  0  0  0  0  0  0  0
   -9.1449    0.0222    0.0000 C   0  0  0  0  0  0  0  0  0  0  0  0
   -5.3949   -3.8748    0.0000 C   0  0  0  0  0  0  0  0  0  0  0  0
   -9.1449    2.6202    0.0000 C   0  0  0  0  0  0  0  0  0  0  0  0
   -5.3949   -1.2768    0.0000 C   0  0  0  0  0  0  0  0  0  0  0  0
   -7.6449   -2.5758    0.0000 C   0  0  0  0  0  0  0  0  0  0  0  0
   -9.8949    1.3213    0.0000 C   0  0  0  0  0  0  0  0  0  0  0  0
   -4.6449   -2.5758    0.0000 C   0  0  0  0  0  0  0  0  0  0  0  0
   -6.8949   -3.8748    0.0000 C   0  0  0  0  0  0  0  0  0  0  0  0
    0.4624   -6.6739    0.0000 C   0  0  0  0  0  0  0  0  0  0  0  0
    0.4624   -3.6739    0.0000 C   0  0  0  0  0  0  0  0  0  0  0  0
    1.7615   -5.9239    0.0000 C   0  0  0  0  0  0  0  0  0  0  0  0
    1.7615   -4.4239    0.0000 C   0  0  0  0  0  0  0  0  0  0  0  0
  1 11  1  0  0  0  0
  1 13  1  0  0  0  0
  2 10  2  0  0  0  0
  3 12  1  0  0  0  0
  3 13  2  0  0  0  0
  4 10  1  0  0  0  0
  4 14  1  0  0  0  0
  5 13  1  0  0  0  0
  5 16  1  0  0  0  0
  6  7  1  0  0  0  0
  6  8  2  0  0  0  0
  6 14  1  0  0  0  0
  7  9  1  0  0  0  0
  7 15  2  0  0  0  0
  8 10  1  0  0  0  0
  8 17  1  0  0  0  0
  9 18  2  0  0  0  0
  9 19  1  0  0  0  0
 11 12  1  0  0  0  0
 11 23  2  0  0  0  0
 12 24  2  0  0  0  0
 15 20  1  0  0  0  0
 16 21  2  0  0  0  0
 16 22  1  0  0  0  0
 17 20  2  0  0  0  0
 18 21  1  0  0  0  0
 19 22  2  0  0  0  0
 23 25  1  0  0  0  0
 24 26  1  0  0  0  0
 25 26  2  0  0  0  0
M  END
> <Value>
5.899998417198648

> <Relation>
<

> <SourceURI>
mol:CHEMBL2004771

$$$$

Generated by Molecular Materials Informatics

 21 23  0  0  0  0  0  0  0  0999 V2000
    3.5877    5.4000    0.0000 O   0  0  0  0  0  0  0  0  0  0  0  0
    4.8867    3.1500    0.0000 O   0  0  0  0  0  0  0  0  0  0  0  0
   -1.7360   -1.8135    0.0000 N   0  0  0  0  0  0  0  0  0  0  0  0
    0.9897   -2.1000    0.0000 N   0  0  0  0  0  0  0  0  0  0  0  0
    2.2886    0.1500    0.0000 N   0  0  0  0  0  0  0  0  0  0  0  0
    0.9897    2.4000    0.0000 N   0  0  0  0  0  0  0  0  0  0  0  0
   -0.3094    0.1500    0.0000 C   0  0  0  0  0  0  0  0  0  0  0  0
   -1.7360    0.6135    0.0000 C   0  0  0  0  0  0  0  0  0  0  0  0
   -0.3094   -1.3500    0.0000 C   0  0  0  0  0  0  0  0  0  0  0  0
    0.9897    0.9000    0.0000 C   0  0  0  0  0  0  0  0  0  0  0  0
   -2.1996    2.0402    0.0000 C   0  0  0  0  0  0  0  0  0  0  0  0
   -2.6176   -0.6000    0.0000 C   0  0  0  0  0  0  0  0  0  0  0  0
    2.2886   -1.3500    0.0000 C   0  0  0  0  0  0  0  0  0  0  0  0
    2.2886    3.1500    0.0000 C   0  0  0  0  0  0  0  0  0  0  0  0
   -3.6667    2.3520    0.0000 C   0  0  0  0  0  0  0  0  0  0  0  0
   -1.1958    3.1549    0.0000 C   0  0  0  0  0  0  0  0  0  0  0  0
   -4.1303    3.7785    0.0000 C   0  0  0  0  0  0  0  0  0  0  0  0
   -1.6594    4.5815    0.0000 C   0  0  0  0  0  0  0  0  0  0  0  0
    2.2886    4.6500    0.0000 C   0  0  0  0  0  0  0  0  0  0  0  0
    3.5877    2.4000    0.0000 C   0  0  0  0  0  0  0  0  0  0  0  0
   -3.1265    4.8933    0.0000 C   0  0  0  0  0  0  0  0  0  0  0  0
  1 19  1  0  0  0  0
  2 20  1  0  0  0  0
  3  9  1  0  0  0  0
  3 12  1  0  0  0  0
  4  9  1  0  0  0  0
  4 13  2  0  0  0  0
  5 10  2  0  0  0  0
  5 13  1  0  0  0  0
  6 10  1  0  0  0  0
  6 14  1  0  0  0  0
  7  8  1  0  0  0  0
  7  9  2  0  0  0  0
  7 10  1  0  0  0  0
  8 11  1  0  0  0  0
  8 12  2  0  0  0  0
 11 15  2  0  0  0  0
 11 16  1  0  0  0  0
 14 19  1  0  0  0  0
 14 20  1  0  0  0  0
 15 17  1  0  0  0  0
 16 18  2  0  0  0  0
 17 21  2  0  0  0  0
 18 21  1  0  0  0  0
M  END
> <Value>
5.899998417198648

> <Relation>
<

> <SourceURI>
mol:CHEMBL1992922

$$$$

Generated by Molecular Materials Informatics

 34 39  0  0  0  0  0  0  0  0999 V2000
   -3.4665    5.5845    0.0000 O   0  0  0  0  0  0  0  0  0  0  0  0
    0.3949   -0.3194    0.0000 N   0  0  0  0  0  0  0  0  0  0  0  0
    3.1206   -0.6059    0.0000 N   0  0  0  0  0  0  0  0  0  0  0  0
    4.4195    1.6441    0.0000 N   0  0  0  0  0  0  0  0  0  0  0  0
    3.1206    3.8941    0.0000 N   0  0  0  0  0  0  0  0  0  0  0  0
   -2.6549   -5.5019    0.0000 N   0  0  0  0  0  0  0  0  0  0  0  0
    1.8215    1.6441    0.0000 C   0  0  0  0  0  0  0  0  0  0  0  0
    1.8215    0.1441    0.0000 C   0  0  0  0  0  0  0  0  0  0  0  0
    0.3949    2.1075    0.0000 C   0  0  0  0  0  0  0  0  0  0  0  0
   -0.0687   -1.7461    0.0000 C   0  0  0  0  0  0  0  0  0  0  0  0
   -0.4867    0.8941    0.0000 C   0  0  0  0  0  0  0  0  0  0  0  0
    3.1206    2.3941    0.0000 C   0  0  0  0  0  0  0  0  0  0  0  0
   -0.0687    3.5343    0.0000 C   0  0  0  0  0  0  0  0  0  0  0  0
    0.6124   -3.0825    0.0000 C   0  0  0  0  0  0  0  0  0  0  0  0
   -1.4051   -2.4270    0.0000 C   0  0  0  0  0  0  0  0  0  0  0  0
   -0.7242   -3.7636    0.0000 C   0  0  0  0  0  0  0  0  0  0  0  0
    4.4195    0.1441    0.0000 C   0  0  0  0  0  0  0  0  0  0  0  0
   -1.5358    3.8461    0.0000 C   0  0  0  0  0  0  0  0  0  0  0  0
    0.9351    4.6490    0.0000 C   0  0  0  0  0  0  0  0  0  0  0  0
   -1.9994    5.2726    0.0000 C   0  0  0  0  0  0  0  0  0  0  0  0
   -1.1876   -5.1901    0.0000 C   0  0  0  0  0  0  0  0  0  0  0  0
    0.4715    6.0756    0.0000 C   0  0  0  0  0  0  0  0  0  0  0  0
   -0.9956    6.3874    0.0000 C   0  0  0  0  0  0  0  0  0  0  0  0
   -3.2651   -6.8723    0.0000 C   0  0  0  0  0  0  0  0  0  0  0  0
   -3.7696   -4.4983    0.0000 C   0  0  0  0  0  0  0  0  0  0  0  0
   -4.4703    4.4697    0.0000 C   0  0  0  0  0  0  0  0  0  0  0  0
   -4.7567   -6.7156    0.0000 C   0  0  0  0  0  0  0  0  0  0  0  0
   -5.0687   -5.2483    0.0000 C   0  0  0  0  0  0  0  0  0  0  0  0
   -5.9374    4.7817    0.0000 C   0  0  0  0  0  0  0  0  0  0  0  0
   -6.9413    3.6670    0.0000 C   0  0  0  0  0  0  0  0  0  0  0  0
   -6.4011    6.2083    0.0000 C   0  0  0  0  0  0  0  0  0  0  0  0
   -8.4085    3.9788    0.0000 C   0  0  0  0  0  0  0  0  0  0  0  0
   -7.8684    6.5201    0.0000 C   0  0  0  0  0  0  0  0  0  0  0  0
   -8.8720    5.4054    0.0000 C   0  0  0  0  0  0  0  0  0  0  0  0
  1 20  1  0  0  0  0
  1 26  1  0  0  0  0
  2  8  1  0  0  0  0
  2 10  1  0  0  0  0
  2 11  1  0  0  0  0
  3  8  1  0  0  0  0
  3 17  2  0  0  0  0
  4 12  2  0  0  0  0
  4 17  1  0  0  0  0
  5 12  1  0  0  0  0
  6 21  1  0  0  0  0
  6 24  1  0  0  0  0
  6 25  1  0  0  0  0
  7  8  2  0  0  0  0
  7  9  1  0  0  0  0
  7 12  1  0  0  0  0
  9 11  2  0  0  0  0
  9 13  1  0  0  0  0
 10 14  1  0  0  0  0
 10 15  1  0  0  0  0
 13 18  1  0  0  0  0
 13 19  2  0  0  0  0
 14 16  1  0  0  0  0
 15 16  1  0  0  0  0
 16 21  1  0  0  0  0
 18 20  2  0  0  0  0
 19 22  1  0  0  0  0
 20 23  1  0  0  0  0
 22 23  2  0  0  0  0
 24 27  1  0  0  0  0
 25 28  1  0  0  0  0
 26 29  1  0  0  0  0
 27 28  1  0  0  0  0
 29 30  2  0  0  0  0
 29 31  1  0  0  0  0
 30 32  1  0  0  0  0
 31 33  2  0  0  0  0
 32 34  2  0  0  0  0
 33 34  1  0  0  0  0
M  END
> <Value>
5.899998417198648

> <Relation>
<

> <SourceURI>
mol:CHEMBL1988370

$$$$

Generated by Molecular Materials Informatics

 22 24  0  0  0  0  0  0  0  0999 V2000
    6.8634   -4.5979    0.0000 S   0  0  0  0  0  0  0  0  0  0  0  0
    5.3634   -4.5979    0.0000 O   0  0  0  0  0  0  0  0  0  0  0  0
    8.3634   -4.5979    0.0000 O   0  0  0  0  0  0  0  0  0  0  0  0
   -2.3573    1.8656    0.0000 N   0  0  0  0  0  0  0  0  0  0  0  0
   -3.2389    0.6521    0.0000 N   0  0  0  0  0  0  0  0  0  0  0  0
    6.8634   -3.0979    0.0000 N   0  0  0  0  0  0  0  0  0  0  0  0
   -2.8208   -1.9881    0.0000 N   0  0  0  0  0  0  0  0  0  0  0  0
   -0.9308   -0.0979    0.0000 C   0  0  0  0  0  0  0  0  0  0  0  0
   -0.9308    1.4021    0.0000 C   0  0  0  0  0  0  0  0  0  0  0  0
    1.6674   -0.0979    0.0000 C   0  0  0  0  0  0  0  0  0  0  0  0
   -2.3573   -0.5615    0.0000 C   0  0  0  0  0  0  0  0  0  0  0  0
    0.3683   -0.8479    0.0000 C   0  0  0  0  0  0  0  0  0  0  0  0
    2.9663   -0.8479    0.0000 C   0  0  0  0  0  0  0  0  0  0  0  0
    0.3683    2.1521    0.0000 C   0  0  0  0  0  0  0  0  0  0  0  0
    1.6674    1.4021    0.0000 C   0  0  0  0  0  0  0  0  0  0  0  0
    5.5645   -2.3479    0.0000 C   0  0  0  0  0  0  0  0  0  0  0  0
    4.2654   -0.0979    0.0000 C   0  0  0  0  0  0  0  0  0  0  0  0
    2.9663   -2.3479    0.0000 C   0  0  0  0  0  0  0  0  0  0  0  0
    5.5645   -0.8479    0.0000 C   0  0  0  0  0  0  0  0  0  0  0  0
    4.2654   -3.0979    0.0000 C   0  0  0  0  0  0  0  0  0  0  0  0
    6.8634   -6.0979    0.0000 C   0  0  0  0  0  0  0  0  0  0  0  0
    8.1625   -6.8479    0.0000 C   0  0  0  0  0  0  0  0  0  0  0  0
  1  2  2  0  0  0  0
  1  3  2  0  0  0  0
  1  6  1  0  0  0  0
  1 21  1  0  0  0  0
  4  5  1  0  0  0  0
  4  9  1  0  0  0  0
  5 11  2  0  0  0  0
  6 16  1  0  0  0  0
  7 11  1  0  0  0  0
  8  9  1  0  0  0  0
  8 11  1  0  0  0  0
  8 12  2  0  0  0  0
  9 14  2  0  0  0  0
 10 12  1  0  0  0  0
 10 13  1  0  0  0  0
 10 15  2  0  0  0  0
 13 17  2  0  0  0  0
 13 18  1  0  0  0  0
 14 15  1  0  0  0  0
 16 19  2  0  0  0  0
 16 20  1  0  0  0  0
 17 19  1  0  0  0  0
 18 20  2  0  0  0  0
 21 22  1  0  0  0  0
M  END
> <Value>
6.299997602857746

> <Relation>
=

> <SourceURI>
mol:CHEMBL1997597

$$$$

Generated by Molecular Materials Informatics

 20 24  0  0  0  0  0  0  0  0999 V2000
   -0.4560   -0.7430    0.0000 S   0  0  0  0  0  0  0  0  0  0  0  0
    2.7894   -2.0961    0.0000 S   0  0  0  0  0  0  0  0  0  0  0  0
    3.7366    5.0120    0.0000 S   0  0  0  0  0  0  0  0  0  0  0  0
    2.0067    0.4597    0.0000 N   0  0  0  0  0  0  0  0  0  0  0  0
    1.9147    3.0562    0.0000 N   0  0  0  0  0  0  0  0  0  0  0  0
   -0.0982    4.4124    0.0000 N   0  0  0  0  0  0  0  0  0  0  0  0
    4.1874    1.5248    0.0000 N   0  0  0  0  0  0  0  0  0  0  0  0
    4.3970    0.0395    0.0000 N   0  0  0  0  0  0  0  0  0  0  0  0
    1.0834    5.3364    0.0000 N   0  0  0  0  0  0  0  0  0  0  0  0
   -0.2880    1.6782    0.0000 C   0  0  0  0  0  0  0  0  0  0  0  0
    0.5076    0.4066    0.0000 C   0  0  0  0  0  0  0  0  0  0  0  0
    0.4156    3.0031    0.0000 C   0  0  0  0  0  0  0  0  0  0  0  0
    2.7101    1.7844    0.0000 C   0  0  0  0  0  0  0  0  0  0  0  0
   -1.7431    1.3146    0.0000 C   0  0  0  0  0  0  0  0  0  0  0  0
   -1.8471   -0.1817    0.0000 C   0  0  0  0  0  0  0  0  0  0  0  0
    3.0492   -0.6186    0.0000 C   0  0  0  0  0  0  0  0  0  0  0  0
    2.3274    4.4982    0.0000 C   0  0  0  0  0  0  0  0  0  0  0  0
   -3.1342    1.8759    0.0000 C   0  0  0  0  0  0  0  0  0  0  0  0
   -3.3024   -0.5454    0.0000 C   0  0  0  0  0  0  0  0  0  0  0  0
   -4.0978    0.7263    0.0000 C   0  0  0  0  0  0  0  0  0  0  0  0
  1 11  1  0  0  0  0
  1 15  1  0  0  0  0
  2 16  2  0  0  0  0
  3 17  2  0  0  0  0
  4 11  1  0  0  0  0
  4 13  1  0  0  0  0
  4 16  1  0  0  0  0
  5 12  1  0  0  0  0
  5 13  1  0  0  0  0
  5 17  1  0  0  0  0
  6  9  1  0  0  0  0
  6 12  2  0  0  0  0
  7  8  1  0  0  0  0
  7 13  2  0  0  0  0
  8 16  1  0  0  0  0
  9 17  1  0  0  0  0
 10 11  2  0  0  0  0
 10 12  1  0  0  0  0
 10 14  1  0  0  0  0
 14 15  2  0  0  0  0
 14 18  1  0  0  0  0
 15 19  1  0  0  0  0
 18 20  1  0  0  0  0
 19 20  1  0  0  0  0
M  END
> <Value>
7.50003813440381

> <Relation>
=

> <SourceURI>
mol:CHEMBL1969537

$$$$

Generated by Molecular Materials Informatics

 19 20  0  0  0  0  0  0  0  0999 V2000
    0.4105   -3.3876    0.0000 C   0  0  0  0  0  0  0  0  0  0  0  0
   -0.8879   -2.6365    0.0000 C   0  0  0  0  0  0  0  0  0  0  0  0
   -0.8866   -1.1363    0.0000 C   0  0  0  0  0  0  0  0  0  0  0  0
    0.4132   -0.3873    0.0000 C   0  0  0  0  0  0  0  0  0  0  0  0
    1.7116   -1.1384    0.0000 C   0  0  0  0  0  0  0  0  0  0  0  0
    3.0113   -0.3897    0.0000 C   0  0  0  0  0  0  0  0  0  0  0  0
    4.3097   -1.1408    0.0000 C   0  0  0  0  0  0  0  0  0  0  0  0
    4.3086   -2.6408    0.0000 C   0  0  0  0  0  0  0  0  0  0  0  0
    3.0087   -3.3898    0.0000 C   0  0  0  0  0  0  0  0  0  0  0  0
    1.7103   -2.6387    0.0000 C   0  0  0  0  0  0  0  0  0  0  0  0
    0.4094   -4.8876    0.0000 O   0  0  0  0  0  0  0  0  0  0  0  0
    0.4143    1.1125    0.0000 N   0  0  0  0  0  0  0  0  0  0  0  0
   -0.8841    1.8636    0.0000 C   0  0  0  0  0  0  0  0  0  0  0  0
   -2.1838    1.1149    0.0000 C   0  0  0  0  0  0  0  0  0  0  0  0
   -3.4821    1.8660    0.0000 N   0  0  0  0  0  0  0  0  0  0  0  0
   -4.7818    1.1171    0.0000 C   0  0  0  0  0  0  0  0  0  0  0  0
   -4.7833   -0.3830    0.0000 C   0  0  0  0  0  0  0  0  0  0  0  0
   -3.4809    3.3660    0.0000 C   0  0  0  0  0  0  0  0  0  0  0  0
   -4.7793    4.1171    0.0000 C   0  0  0  0  0  0  0  0  0  0  0  0
  1  2  1  0  0  0  0
  2  3  2  0  0  0  0
  3  4  1  0  0  0  0
  4  5  2  0  0  0  0
  5  6  1  0  0  0  0
  6  7  2  0  0  0  0
  7  8  1  0  0  0  0
  8  9  2  0  0  0  0
  9 10  1  0  0  0  0
  1 10  2  0  0  0  0
  5 10  1  0  0  0  0
  1 11  1  0  0  0  0
 13 14  1  0  0  0  0
 16 17  1  0  0  0  0
 15 16  1  0  0  0  0
 18 19  1  0  0  0  0
 15 18  1  0  0  0  0
 14 15  1  0  0  0  0
 12 13  1  0  0  0  0
  4 12  1  0  0  0  0
M  END
> <Value>
5.300000202445418

> <Relation>
<

> <SourceURI>
mol:CHEMBL576113

$$$$

Generated by Molecular Materials Informatics

 31 34  0  0  0  0  0  0  0  0999 V2000
   -5.6198    0.2006    0.0000 F   0  0  0  0  0  0  0  0  0  0  0  0
    2.6884   -0.5494    0.0000 N   0  0  0  0  0  0  0  0  0  0  0  0
    1.2618    1.4140    0.0000 N   0  0  0  0  0  0  0  0  0  0  0  0
   -0.6689   -2.7514    0.0000 N   0  0  0  0  0  0  0  0  0  0  0  0
    5.2865    0.9506    0.0000 N   0  0  0  0  0  0  0  0  0  0  0  0
   -0.1287   -5.2927    0.0000 N   0  0  0  0  0  0  0  0  0  0  0  0
   -2.5996   -4.4900    0.0000 N   0  0  0  0  0  0  0  0  0  0  0  0
   -7.5415   -2.8841    0.0000 N   0  0  0  0  0  0  0  0  0  0  0  0
    1.2618   -1.0130    0.0000 C   0  0  0  0  0  0  0  0  0  0  0  0
    0.3802    0.2006    0.0000 C   0  0  0  0  0  0  0  0  0  0  0  0
    2.6884    0.9506    0.0000 C   0  0  0  0  0  0  0  0  0  0  0  0
    0.7984   -2.4396    0.0000 C   0  0  0  0  0  0  0  0  0  0  0  0
   -1.1198    0.2006    0.0000 C   0  0  0  0  0  0  0  0  0  0  0  0
    3.9874   -1.2994    0.0000 C   0  0  0  0  0  0  0  0  0  0  0  0
    3.9874    1.7006    0.0000 C   0  0  0  0  0  0  0  0  0  0  0  0
    1.8020   -3.5543    0.0000 C   0  0  0  0  0  0  0  0  0  0  0  0
   -1.1326   -4.1781    0.0000 C   0  0  0  0  0  0  0  0  0  0  0  0
   -1.8698   -1.0985    0.0000 C   0  0  0  0  0  0  0  0  0  0  0  0
   -1.8698    1.4995    0.0000 C   0  0  0  0  0  0  0  0  0  0  0  0
    5.2865   -0.5494    0.0000 C   0  0  0  0  0  0  0  0  0  0  0  0
    1.3384   -4.9809    0.0000 C   0  0  0  0  0  0  0  0  0  0  0  0
   -3.3698   -1.0985    0.0000 C   0  0  0  0  0  0  0  0  0  0  0  0
   -3.3698    1.4995    0.0000 C   0  0  0  0  0  0  0  0  0  0  0  0
   -4.1198    0.2006    0.0000 C   0  0  0  0  0  0  0  0  0  0  0  0
   -5.0706   -3.6871    0.0000 C   0  0  0  0  0  0  0  0  0  0  0  0
   -3.6035   -3.3752    0.0000 C   0  0  0  0  0  0  0  0  0  0  0  0
   -6.5378   -3.9989    0.0000 C   0  0  0  0  0  0  0  0  0  0  0  0
   -5.3826   -2.2198    0.0000 C   0  0  0  0  0  0  0  0  0  0  0  0
   -4.7587   -5.1543    0.0000 C   0  0  0  0  0  0  0  0  0  0  0  0
   -9.0087   -3.1961    0.0000 C   0  0  0  0  0  0  0  0  0  0  0  0
   -7.0780   -1.4576    0.0000 C   0  0  0  0  0  0  0  0  0  0  0  0
  1 24  1  0  0  0  0
  2  9  1  0  0  0  0
  2 11  1  0  0  0  0
  2 14  1  0  0  0  0
  3 10  1  0  0  0  0
  3 11  2  0  0  0  0
  4 12  2  0  0  0  0
  4 17  1  0  0  0  0
  5 15  2  0  0  0  0
  5 20  1  0  0  0  0
  6 17  2  0  0  0  0
  6 21  1  0  0  0  0
  7 17  1  0  0  0  0
  7 26  1  0  0  0  0
  8 27  1  0  0  0  0
  8 30  1  0  0  0  0
  8 31  1  0  0  0  0
  9 10  2  0  0  0  0
  9 12  1  0  0  0  0
 10 13  1  0  0  0  0
 11 15  1  0  0  0  0
 12 16  1  0  0  0  0
 13 18  2  0  0  0  0
 13 19  1  0  0  0  0
 14 20  2  0  0  0  0
 16 21  2  0  0  0  0
 18 22  1  0  0  0  0
 19 23  2  0  0  0  0
 22 24  2  0  0  0  0
 23 24  1  0  0  0  0
 25 26  1  0  0  0  0
 25 27  1  0  0  0  0
 25 28  1  0  0  0  0
 25 29  1  0  0  0  0
M  END
> <Value>
5.899998417198648

> <Relation>
<

> <SourceURI>
mol:CHEMBL1976093

$$$$

Generated by Molecular Materials Informatics

 26 29  0  0  0  0  0  0  0  0999 V2000
    1.8034   10.3035    0.0000 S   0  0  0  0  0  0  0  0  0  0  0  0
    1.8454    2.1221    0.0000 S   0  0  0  0  0  0  0  0  0  0  0  0
    3.2754   14.8337    0.0000 O   0  0  0  0  0  0  0  0  0  0  0  0
    6.9561    6.7537    0.0000 O   0  0  0  0  0  0  0  0  0  0  0  0
    4.9070   11.3119    0.0000 N   0  0  0  0  0  0  0  0  0  0  0  0
    6.4070   11.3119    0.0000 N   0  0  0  0  0  0  0  0  0  0  0  0
    6.8705    9.8854    0.0000 N   0  0  0  0  0  0  0  0  0  0  0  0
    4.4889   13.9521    0.0000 N   0  0  0  0  0  0  0  0  0  0  0  0
    2.0618   13.9521    0.0000 N   0  0  0  0  0  0  0  0  0  0  0  0
    4.3579    6.7537    0.0000 N   0  0  0  0  0  0  0  0  0  0  0  0
    1.6436   11.3119    0.0000 N   0  0  0  0  0  0  0  0  0  0  0  0
    4.3579    5.2537    0.0000 N   0  0  0  0  0  0  0  0  0  0  0  0
    4.4434    9.8854    0.0000 C   0  0  0  0  0  0  0  0  0  0  0  0
    5.6570    9.0037    0.0000 C   0  0  0  0  0  0  0  0  0  0  0  0
    4.0254   12.5255    0.0000 C   0  0  0  0  0  0  0  0  0  0  0  0
    3.0169    9.4219    0.0000 C   0  0  0  0  0  0  0  0  0  0  0  0
    5.6570    7.5037    0.0000 C   0  0  0  0  0  0  0  0  0  0  0  0
    2.5254   12.5255    0.0000 C   0  0  0  0  0  0  0  0  0  0  0  0
    2.5534    7.9952    0.0000 C   0  0  0  0  0  0  0  0  0  0  0  0
    0.5898    9.4219    0.0000 C   0  0  0  0  0  0  0  0  0  0  0  0
    1.0534    7.9952    0.0000 C   0  0  0  0  0  0  0  0  0  0  0  0
    3.0589    4.5037    0.0000 C   0  0  0  0  0  0  0  0  0  0  0  0
    3.0589    3.0037    0.0000 C   0  0  0  0  0  0  0  0  0  0  0  0
    4.2725    2.1221    0.0000 C   0  0  0  0  0  0  0  0  0  0  0  0
    2.3089    0.6954    0.0000 C   0  0  0  0  0  0  0  0  0  0  0  0
    3.8089    0.6954    0.0000 C   0  0  0  0  0  0  0  0  0  0  0  0
  1 16  1  0  0  0  0
  1 20  1  0  0  0  0
  2 23  1  0  0  0  0
  2 25  1  0  0  0  0
  3  8  1  0  0  0  0
  3  9  1  0  0  0  0
  4 17  2  0  0  0  0
  5  6  1  0  0  0  0
  5 13  1  0  0  0  0
  5 15  1  0  0  0  0
  6  7  2  0  0  0  0
  7 14  1  0  0  0  0
  8 15  2  0  0  0  0
  9 18  2  0  0  0  0
 12 10  1  0  0  0  0
 10 17  1  0  0  0  0
 11 18  1  0  0  0  0
 12 22  2  0  0  0  0
 13 14  2  0  0  0  0
 13 16  1  0  0  0  0
 14 17  1  0  0  0  0
 15 18  1  0  0  0  0
 16 19  2  0  0  0  0
 19 21  1  0  0  0  0
 20 21  2  0  0  0  0
 22 23  1  0  0  0  0
 23 24  2  0  0  0  0
 24 26  1  0  0  0  0
 25 26  2  0  0  0  0
M  END
> <Value>
5.899998417198648

> <Relation>
<

> <SourceURI>
mol:CHEMBL1975256

$$$$

Generated by Molecular Materials Informatics

 33 37  0  0  0  0  0  0  0  0999 V2000
    2.7718    0.0427    0.0000 N   0  0  0  0  0  0  0  0  0  0  0  0
    4.0664    0.7852    0.0000 C   0  0  0  0  0  0  0  0  0  0  0  0
    4.0664    2.2852    0.0000 C   0  0  0  0  0  0  0  0  0  0  0  0
    2.7718    3.0429    0.0000 C   0  0  0  0  0  0  0  0  0  0  0  0
    5.3610    3.0276    0.0000 C   0  0  0  0  0  0  0  0  0  0  0  0
    6.6583    2.2706    0.0000 C   0  0  0  0  0  0  0  0  0  0  0  0
    7.9586    3.0156    0.0000 C   0  0  0  0  0  0  0  0  0  0  0  0
    7.9639    4.5173    0.0000 C   0  0  0  0  0  0  0  0  0  0  0  0
    6.6579    5.2708    0.0000 C   0  0  0  0  0  0  0  0  0  0  0  0
    5.3628    4.5215    0.0000 C   0  0  0  0  0  0  0  0  0  0  0  0
    2.7718    4.5429    0.0000 N   0  0  0  0  0  0  0  0  0  0  0  0
    1.4771    0.7852    0.0000 C   0  0  0  0  0  0  0  0  0  0  0  0
    1.4689    2.2850    0.0000 N   0  0  0  0  0  0  0  0  0  0  0  0
    0.0398    2.7409    0.0000 N   0  0  0  0  0  0  0  0  0  0  0  0
   -0.8354    1.5225    0.0000 C   0  0  0  0  0  0  0  0  0  0  0  0
    0.0532    0.3140    0.0000 C   0  0  0  0  0  0  0  0  0  0  0  0
    9.2641    5.2654    0.0000 N   0  0  0  0  0  0  0  0  0  0  0  0
   10.5620    4.5131    0.0000 C   0  0  0  0  0  0  0  0  0  0  0  0
   11.8622    5.2612    0.0000 N   0  0  0  0  0  0  0  0  0  0  0  0
   10.5596    3.0131    0.0000 O   0  0  0  0  0  0  0  0  0  0  0  0
   13.1602    4.5089    0.0000 C   0  0  0  0  0  0  0  0  0  0  0  0
   13.1517    3.0105    0.0000 C   0  0  0  0  0  0  0  0  0  0  0  0
   14.4480    2.2586    0.0000 C   0  0  0  0  0  0  0  0  0  0  0  0
   15.7501    3.0067    0.0000 C   0  0  0  0  0  0  0  0  0  0  0  0
   15.7477    4.5144    0.0000 C   0  0  0  0  0  0  0  0  0  0  0  0
   14.4502    5.2597    0.0000 C   0  0  0  0  0  0  0  0  0  0  0  0
   17.0454    5.2670    0.0000 C   0  0  0  0  0  0  0  0  0  0  0  0
   -0.3967   -1.1120    0.0000 C   0  0  0  0  0  0  0  0  0  0  0  0
   -1.8107   -1.5802    0.0000 C   0  0  0  0  0  0  0  0  0  0  0  0
   -1.7978   -3.0753    0.0000 N   0  0  0  0  0  0  0  0  0  0  0  0
   -0.3716   -3.5250    0.0000 N   0  0  0  0  0  0  0  0  0  0  0  0
    0.4966   -2.3075    0.0000 C   0  0  0  0  0  0  0  0  0  0  0  0
   -3.0037   -3.9675    0.0000 C   0  0  0  0  0  0  0  0  0  0  0  0
 15 16  1  0  0  0  0
 16 12  2  0  0  0  0
  7  8  2  0  0  0  0
  8 17  1  0  0  0  0
  2  3  1  0  0  0  0
 17 18  1  0  0  0  0
  8  9  1  0  0  0  0
 18 19  1  0  0  0  0
  3  4  2  0  0  0  0
 18 20  2  0  0  0  0
  9 10  2  0  0  0  0
 19 21  1  0  0  0  0
 10  5  1  0  0  0  0
 21 22  2  0  0  0  0
  3  5  1  0  0  0  0
 22 23  1  0  0  0  0
 23 24  2  0  0  0  0
  4 11  1  0  0  0  0
 24 25  1  0  0  0  0
 12 13  1  0  0  0  0
 25 26  2  0  0  0  0
 26 21  1  0  0  0  0
 13  4  1  0  0  0  0
 25 27  1  0  0  0  0
  5  6  2  0  0  0  0
 16 28  1  0  0  0  0
 28 29  2  0  0  0  0
 12  1  1  0  0  0  0
  6  7  1  0  0  0  0
  1  2  2  0  0  0  0
 13 14  1  0  0  0  0
 29 30  1  0  0  0  0
 30 31  1  0  0  0  0
 31 32  2  0  0  0  0
 32 28  1  0  0  0  0
 14 15  2  0  0  0  0
 30 33  1  0  0  0  0
M  END
> <Value>
5.899998417198648

> <Relation>
<

> <SourceURI>
mol:CHEMBL508928

$$$$

Generated by Molecular Materials Informatics

 21 23  0  0  0  0  0  0  0  0999 V2000
    6.8634   -4.7667    0.0000 S   0  0  0  0  0  0  0  0  0  0  0  0
    6.8634   -6.2667    0.0000 O   0  0  0  0  0  0  0  0  0  0  0  0
    8.3634   -4.7667    0.0000 O   0  0  0  0  0  0  0  0  0  0  0  0
   -2.3573    1.6968    0.0000 N   0  0  0  0  0  0  0  0  0  0  0  0
   -3.2389    0.4834    0.0000 N   0  0  0  0  0  0  0  0  0  0  0  0
    6.8634   -3.2667    0.0000 N   0  0  0  0  0  0  0  0  0  0  0  0
   -2.8208   -2.1568    0.0000 N   0  0  0  0  0  0  0  0  0  0  0  0
   -0.9308   -0.2666    0.0000 C   0  0  0  0  0  0  0  0  0  0  0  0
   -0.9308    1.2334    0.0000 C   0  0  0  0  0  0  0  0  0  0  0  0
    1.6674   -0.2666    0.0000 C   0  0  0  0  0  0  0  0  0  0  0  0
   -2.3573   -0.7303    0.0000 C   0  0  0  0  0  0  0  0  0  0  0  0
    0.3683   -1.0166    0.0000 C   0  0  0  0  0  0  0  0  0  0  0  0
    2.9663   -1.0166    0.0000 C   0  0  0  0  0  0  0  0  0  0  0  0
    0.3683    1.9834    0.0000 C   0  0  0  0  0  0  0  0  0  0  0  0
    1.6674    1.2334    0.0000 C   0  0  0  0  0  0  0  0  0  0  0  0
    5.5645   -2.5166    0.0000 C   0  0  0  0  0  0  0  0  0  0  0  0
    4.2654   -0.2666    0.0000 C   0  0  0  0  0  0  0  0  0  0  0  0
    2.9663   -2.5166    0.0000 C   0  0  0  0  0  0  0  0  0  0  0  0
    5.5645   -1.0166    0.0000 C   0  0  0  0  0  0  0  0  0  0  0  0
    4.2654   -3.2667    0.0000 C   0  0  0  0  0  0  0  0  0  0  0  0
    5.3634   -4.7667    0.0000 C   0  0  0  0  0  0  0  0  0  0  0  0
  1  2  2  0  0  0  0
  1  3  2  0  0  0  0
  1  6  1  0  0  0  0
  1 21  1  0  0  0  0
  4  5  1  0  0  0  0
  4  9  1  0  0  0  0
  5 11  2  0  0  0  0
  6 16  1  0  0  0  0
  7 11  1  0  0  0  0
  8  9  1  0  0  0  0
  8 11  1  0  0  0  0
  8 12  2  0  0  0  0
  9 14  2  0  0  0  0
 10 12  1  0  0  0  0
 10 13  1  0  0  0  0
 10 15  2  0  0  0  0
 13 17  2  0  0  0  0
 13 18  1  0  0  0  0
 14 15  1  0  0  0  0
 16 19  2  0  0  0  0
 16 20  1  0  0  0  0
 17 19  1  0  0  0  0
 18 20  2  0  0  0  0
M  END
> <Value>
7.0

> <Relation>
=

> <SourceURI>
mol:CHEMBL2004892

$$$$

Generated by Molecular Materials Informatics

 12 13  0  0  0  0  0  0  0  0999 V2000
   16.3137  -10.3507    0.0000 C   0  0  0  0  0  0  0  0  0  0  0  0
   16.3115  -11.8507    0.0000 C   0  0  0  0  0  0  0  0  0  0  0  0
   17.6075  -12.5995    0.0000 C   0  0  0  0  0  0  0  0  0  0  0  0
   17.6043   -9.6022    0.0000 C   0  0  0  0  0  0  0  0  0  0  0  0
   18.9016  -10.3439    0.0000 C   0  0  0  0  0  0  0  0  0  0  0  0
   18.9078  -11.8545    0.0000 C   0  0  0  0  0  0  0  0  0  0  0  0
   20.2118  -12.6004    0.0000 N   0  0  0  0  0  0  0  0  0  0  0  0
   21.5180  -11.8437    0.0000 C   0  0  0  0  0  0  0  0  0  0  0  0
   21.5118  -10.3332    0.0000 N   0  0  0  0  0  0  0  0  0  0  0  0
   20.1994   -9.5791    0.0000 C   0  0  0  0  0  0  0  0  0  0  0  0
   20.1911   -8.0833    0.0000 O   0  0  0  0  0  0  0  0  0  0  0  0
   17.6050  -14.0953    0.0000 Cl  0  0  0  0  0  0  0  0  0  0  0  0
  2  3  1  0  0  0  0
  3  6  2  0  0  0  0
  1  2  2  0  0  0  0
  5  4  2  0  0  0  0
  4  1  1  0  0  0  0
  5 10  1  0  0  0  0
  6  7  1  0  0  0  0
  7  8  2  0  0  0  0
  8  9  1  0  0  0  0
  9 10  1  0  0  0  0
  5  6  1  0  0  0  0
 10 11  2  0  0  0  0
  3 12  1  0  0  0  0
M  END
> <Value>
4.900000142057633

> <Relation>
=

> <SourceURI>
mol:CHEMBL1949855

$$$$

Generated by Molecular Materials Informatics

 20 22  0  0  0  0  0  0  0  0999 V2000
    3.5724    2.9249    0.0000 O   0  0  0  0  0  0  0  0  0  0  0  0
   -0.3247    0.6750    0.0000 N   0  0  0  0  0  0  0  0  0  0  0  0
    0.9743    2.9249    0.0000 N   0  0  0  0  0  0  0  0  0  0  0  0
    8.7683   -1.5750    0.0000 N   0  0  0  0  0  0  0  0  0  0  0  0
    0.9743   -0.0750    0.0000 C   0  0  0  0  0  0  0  0  0  0  0  0
    2.2734    0.6750    0.0000 C   0  0  0  0  0  0  0  0  0  0  0  0
    0.9743   -1.5750    0.0000 C   0  0  0  0  0  0  0  0  0  0  0  0
    3.5724   -1.5750    0.0000 C   0  0  0  0  0  0  0  0  0  0  0  0
    3.5724   -0.0750    0.0000 C   0  0  0  0  0  0  0  0  0  0  0  0
    2.2734   -2.3250    0.0000 C   0  0  0  0  0  0  0  0  0  0  0  0
    4.8713   -2.3250    0.0000 C   0  0  0  0  0  0  0  0  0  0  0  0
    2.2734    2.1749    0.0000 C   0  0  0  0  0  0  0  0  0  0  0  0
   -0.3247   -2.3250    0.0000 C   0  0  0  0  0  0  0  0  0  0  0  0
    6.1704   -1.5750    0.0000 C   0  0  0  0  0  0  0  0  0  0  0  0
    4.8713   -3.8249    0.0000 C   0  0  0  0  0  0  0  0  0  0  0  0
   -1.6236   -0.0750    0.0000 C   0  0  0  0  0  0  0  0  0  0  0  0
   -1.6236   -1.5750    0.0000 C   0  0  0  0  0  0  0  0  0  0  0  0
    7.4694   -2.3250    0.0000 C   0  0  0  0  0  0  0  0  0  0  0  0
    6.1704   -4.5749    0.0000 C   0  0  0  0  0  0  0  0  0  0  0  0
    7.4694   -3.8249    0.0000 C   0  0  0  0  0  0  0  0  0  0  0  0
  1 12  2  0  0  0  0
  2  5  2  0  0  0  0
  2 16  1  0  0  0  0
  3 12  1  0  0  0  0
  4 18  1  0  0  0  0
  5  6  1  0  0  0  0
  5  7  1  0  0  0  0
  6  9  2  0  0  0  0
  6 12  1  0  0  0  0
  7 10  1  0  0  0  0
  7 13  2  0  0  0  0
  8  9  1  0  0  0  0
  8 10  2  0  0  0  0
  8 11  1  0  0  0  0
 11 14  1  0  0  0  0
 11 15  2  0  0  0  0
 13 17  1  0  0  0  0
 14 18  2  0  0  0  0
 15 19  1  0  0  0  0
 16 17  2  0  0  0  0
 18 20  1  0  0  0  0
 19 20  2  0  0  0  0
M  END
> <Value>
5.899998417198648

> <Relation>
<

> <SourceURI>
mol:CHEMBL1970314

$$$$

Generated by Molecular Materials Informatics

 22 24  0  0  0  0  0  0  0  0999 V2000
    4.3398   -7.8008    0.0000 F   0  0  0  0  0  0  0  0  0  0  0  0
   -2.5350    3.8615    0.0000 O   0  0  0  0  0  0  0  0  0  0  0  0
    0.0631   -0.6385    0.0000 N   0  0  0  0  0  0  0  0  0  0  0  0
   -0.6869   -2.9466    0.0000 N   0  0  0  0  0  0  0  0  0  0  0  0
    5.5563   -0.1296    0.0000 N   0  0  0  0  0  0  0  0  0  0  0  0
    1.2766   -1.5201    0.0000 C   0  0  0  0  0  0  0  0  0  0  0  0
    0.8131   -2.9466    0.0000 C   0  0  0  0  0  0  0  0  0  0  0  0
    2.7031   -1.0567    0.0000 C   0  0  0  0  0  0  0  0  0  0  0  0
    1.6947   -4.1603    0.0000 C   0  0  0  0  0  0  0  0  0  0  0  0
   -1.1505   -1.5201    0.0000 C   0  0  0  0  0  0  0  0  0  0  0  0
    0.0631    0.8615    0.0000 C   0  0  0  0  0  0  0  0  0  0  0  0
    3.1865   -4.0034    0.0000 C   0  0  0  0  0  0  0  0  0  0  0  0
    1.0846   -5.5306    0.0000 C   0  0  0  0  0  0  0  0  0  0  0  0
    3.8178   -2.0603    0.0000 C   0  0  0  0  0  0  0  0  0  0  0  0
    3.0151    0.4106    0.0000 C   0  0  0  0  0  0  0  0  0  0  0  0
    4.0682   -5.2170    0.0000 C   0  0  0  0  0  0  0  0  0  0  0  0
    1.9664   -6.7441    0.0000 C   0  0  0  0  0  0  0  0  0  0  0  0
    3.4580   -6.5873    0.0000 C   0  0  0  0  0  0  0  0  0  0  0  0
    5.2443   -1.5968    0.0000 C   0  0  0  0  0  0  0  0  0  0  0  0
    4.4416    0.8741    0.0000 C   0  0  0  0  0  0  0  0  0  0  0  0
   -1.2360    1.6115    0.0000 C   0  0  0  0  0  0  0  0  0  0  0  0
   -1.2360    3.1115    0.0000 C   0  0  0  0  0  0  0  0  0  0  0  0
  1 18  1  0  0  0  0
  2 22  1  0  0  0  0
  3  6  1  0  0  0  0
  3 10  1  0  0  0  0
  3 11  1  0  0  0  0
  4  7  1  0  0  0  0
  4 10  2  0  0  0  0
  5 19  2  0  0  0  0
  5 20  1  0  0  0  0
  6  7  2  0  0  0  0
  6  8  1  0  0  0  0
  7  9  1  0  0  0  0
  8 14  2  0  0  0  0
  8 15  1  0  0  0  0
  9 12  2  0  0  0  0
  9 13  1  0  0  0  0
 11 21  1  0  0  0  0
 12 16  1  0  0  0  0
 13 17  2  0  0  0  0
 14 19  1  0  0  0  0
 15 20  2  0  0  0  0
 16 18  2  0  0  0  0
 17 18  1  0  0  0  0
 21 22  1  0  0  0  0
M  END
> <Value>
5.899998417198648

> <Relation>
<

> <SourceURI>
mol:CHEMBL2004871

$$$$

Generated by Molecular Materials Informatics

 25 27  0  0  0  0  0  0  0  0999 V2000
    2.8255    0.6750    0.0000 O   0  0  0  0  0  0  0  0  0  0  0  0
    8.0215    6.6748    0.0000 O   0  0  0  0  0  0  0  0  0  0  0  0
    5.4236    0.6750    0.0000 N   0  0  0  0  0  0  0  0  0  0  0  0
    2.8255   -6.8248    0.0000 N   0  0  0  0  0  0  0  0  0  0  0  0
    4.1245   -9.0747    0.0000 N   0  0  0  0  0  0  0  0  0  0  0  0
    4.1245   -1.5750    0.0000 C   0  0  0  0  0  0  0  0  0  0  0  0
    4.1245   -4.5749    0.0000 C   0  0  0  0  0  0  0  0  0  0  0  0
    4.1245   -0.0750    0.0000 C   0  0  0  0  0  0  0  0  0  0  0  0
    4.1245   -6.0748    0.0000 C   0  0  0  0  0  0  0  0  0  0  0  0
    6.7224    2.9249    0.0000 C   0  0  0  0  0  0  0  0  0  0  0  0
    5.4236    2.1749    0.0000 C   0  0  0  0  0  0  0  0  0  0  0  0
    5.4236   -2.3250    0.0000 C   0  0  0  0  0  0  0  0  0  0  0  0
    2.8255   -2.3250    0.0000 C   0  0  0  0  0  0  0  0  0  0  0  0
    5.4236   -3.8249    0.0000 C   0  0  0  0  0  0  0  0  0  0  0  0
    2.8255   -3.8249    0.0000 C   0  0  0  0  0  0  0  0  0  0  0  0
    6.7224    4.4248    0.0000 C   0  0  0  0  0  0  0  0  0  0  0  0
    8.0215    5.1748    0.0000 C   0  0  0  0  0  0  0  0  0  0  0  0
    8.0215    2.1749    0.0000 C   0  0  0  0  0  0  0  0  0  0  0  0
    5.4236   -6.8248    0.0000 C   0  0  0  0  0  0  0  0  0  0  0  0
    9.3205    4.4248    0.0000 C   0  0  0  0  0  0  0  0  0  0  0  0
    9.3205    2.9249    0.0000 C   0  0  0  0  0  0  0  0  0  0  0  0
    2.8255   -8.3248    0.0000 C   0  0  0  0  0  0  0  0  0  0  0  0
    5.4236   -8.3248    0.0000 C   0  0  0  0  0  0  0  0  0  0  0  0
    4.1245    2.9249    0.0000 C   0  0  0  0  0  0  0  0  0  0  0  0
    6.7224    7.4248    0.0000 C   0  0  0  0  0  0  0  0  0  0  0  0
  1  8  2  0  0  0  0
  2 17  1  0  0  0  0
  2 25  1  0  0  0  0
  3  8  1  0  0  0  0
  3 11  1  0  0  0  0
  4  9  1  0  0  0  0
  4 22  2  0  0  0  0
  5 22  1  0  0  0  0
  5 23  2  0  0  0  0
  6  8  1  0  0  0  0
  6 12  2  0  0  0  0
  6 13  1  0  0  0  0
  7  9  1  0  0  0  0
  7 14  2  0  0  0  0
  7 15  1  0  0  0  0
  9 19  2  0  0  0  0
 10 11  1  0  0  0  0
 10 16  2  0  0  0  0
 10 18  1  0  0  0  0
 11 24  1  0  0  0  0
 12 14  1  0  0  0  0
 13 15  2  0  0  0  0
 16 17  1  0  0  0  0
 17 20  2  0  0  0  0
 18 21  2  0  0  0  0
 19 23  1  0  0  0  0
 20 21  1  0  0  0  0
M  END
> <Value>
5.899998417198648

> <Relation>
<

> <SourceURI>
mol:CHEMBL2004872

$$$$

Generated by Molecular Materials Informatics

 25 27  0  0  0  0  0  0  0  0999 V2000
   -9.5659   -0.1123    0.0000 Cl  0  0  0  0  0  0  0  0  0  0  0  0
   -9.5659    2.8877    0.0000 Cl  0  0  0  0  0  0  0  0  0  0  0  0
   -4.3699   -1.6123    0.0000 O   0  0  0  0  0  0  0  0  0  0  0  0
    2.1253  -10.4835    0.0000 O   0  0  0  0  0  0  0  0  0  0  0  0
   -0.4727  -10.4835    0.0000 O   0  0  0  0  0  0  0  0  0  0  0  0
    0.8262   -6.1123    0.0000 N   0  0  0  0  0  0  0  0  0  0  0  0
    0.8262   -8.2335    0.0000 C   0  0  0  0  0  0  0  0  0  0  0  0
   -0.4727   -3.8623    0.0000 C   0  0  0  0  0  0  0  0  0  0  0  0
    1.8870   -7.1730    0.0000 C   0  0  0  0  0  0  0  0  0  0  0  0
   -0.2343   -7.1730    0.0000 C   0  0  0  0  0  0  0  0  0  0  0  0
    0.8262   -4.6123    0.0000 C   0  0  0  0  0  0  0  0  0  0  0  0
   -1.7718   -4.6123    0.0000 C   0  0  0  0  0  0  0  0  0  0  0  0
   -3.0708   -2.3623    0.0000 C   0  0  0  0  0  0  0  0  0  0  0  0
    0.8262   -9.7335    0.0000 C   0  0  0  0  0  0  0  0  0  0  0  0
   -0.4727   -2.3623    0.0000 C   0  0  0  0  0  0  0  0  0  0  0  0
   -3.0708   -3.8623    0.0000 C   0  0  0  0  0  0  0  0  0  0  0  0
   -5.6688    0.6377    0.0000 C   0  0  0  0  0  0  0  0  0  0  0  0
   -1.7718   -1.6123    0.0000 C   0  0  0  0  0  0  0  0  0  0  0  0
   -8.2670    0.6377    0.0000 C   0  0  0  0  0  0  0  0  0  0  0  0
   -8.2670    2.1377    0.0000 C   0  0  0  0  0  0  0  0  0  0  0  0
   -6.9679   -0.1123    0.0000 C   0  0  0  0  0  0  0  0  0  0  0  0
   -4.3699   -0.1123    0.0000 C   0  0  0  0  0  0  0  0  0  0  0  0
   -5.6688    2.1377    0.0000 C   0  0  0  0  0  0  0  0  0  0  0  0
   -6.9679    2.8877    0.0000 C   0  0  0  0  0  0  0  0  0  0  0  0
   -1.7718   -6.1123    0.0000 C   0  0  0  0  0  0  0  0  0  0  0  0
  1 19  1  0  0  0  0
  2 20  1  0  0  0  0
  3 13  1  0  0  0  0
  3 22  1  0  0  0  0
  4 14  2  0  0  0  0
  5 14  1  0  0  0  0
  6  9  1  0  0  0  0
  6 10  1  0  0  0  0
  6 11  1  0  0  0  0
  7  9  1  0  0  0  0
  7 10  1  0  0  0  0
  7 14  1  0  0  0  0
  8 11  1  0  0  0  0
  8 12  1  0  0  0  0
  8 15  2  0  0  0  0
 12 16  2  0  0  0  0
 12 25  1  0  0  0  0
 13 16  1  0  0  0  0
 13 18  2  0  0  0  0
 15 18  1  0  0  0  0
 17 21  1  0  0  0  0
 17 22  1  0  0  0  0
 17 23  2  0  0  0  0
 19 20  1  0  0  0  0
 19 21  2  0  0  0  0
 20 24  2  0  0  0  0
 23 24  1  0  0  0  0
M  END
> <Value>
5.300000202445418

> <Relation>
<

> <SourceURI>
mol:CHEMBL1990223

$$$$

Generated by Molecular Materials Informatics

 22 24  0  0  0  0  0  0  0  0999 V2000
    2.5895   -4.8709    0.0000 O   0  0  0  0  0  0  0  0  0  0  0  0
    5.1875   -6.3709    0.0000 O   0  0  0  0  0  0  0  0  0  0  0  0
    1.2904    0.3792    0.0000 N   0  0  0  0  0  0  0  0  0  0  0  0
    3.8884   -2.6208    0.0000 N   0  0  0  0  0  0  0  0  0  0  0  0
    2.5895    2.6291    0.0000 N   0  0  0  0  0  0  0  0  0  0  0  0
    1.2904    4.8791    0.0000 N   0  0  0  0  0  0  0  0  0  0  0  0
   -1.4352    4.5928    0.0000 N   0  0  0  0  0  0  0  0  0  0  0  0
    1.2904    1.8792    0.0000 C   0  0  0  0  0  0  0  0  0  0  0  0
   -0.0087    2.6291    0.0000 C   0  0  0  0  0  0  0  0  0  0  0  0
    2.5895   -0.3708    0.0000 C   0  0  0  0  0  0  0  0  0  0  0  0
   -0.0087    4.1291    0.0000 C   0  0  0  0  0  0  0  0  0  0  0  0
    3.8884    0.3792    0.0000 C   0  0  0  0  0  0  0  0  0  0  0  0
    2.5895   -1.8708    0.0000 C   0  0  0  0  0  0  0  0  0  0  0  0
   -1.4352    2.1657    0.0000 C   0  0  0  0  0  0  0  0  0  0  0  0
    5.1875   -0.3708    0.0000 C   0  0  0  0  0  0  0  0  0  0  0  0
    2.5895    4.1291    0.0000 C   0  0  0  0  0  0  0  0  0  0  0  0
   -2.3169    3.3791    0.0000 C   0  0  0  0  0  0  0  0  0  0  0  0
    5.1875   -1.8708    0.0000 C   0  0  0  0  0  0  0  0  0  0  0  0
    3.8884   -4.1208    0.0000 C   0  0  0  0  0  0  0  0  0  0  0  0
   -0.0087   -0.3708    0.0000 C   0  0  0  0  0  0  0  0  0  0  0  0
    3.8884    1.8792    0.0000 C   0  0  0  0  0  0  0  0  0  0  0  0
    5.1875   -4.8709    0.0000 C   0  0  0  0  0  0  0  0  0  0  0  0
  1 19  2  0  0  0  0
  2 22  1  0  0  0  0
  3  8  1  0  0  0  0
  3 10  1  0  0  0  0
  3 20  1  0  0  0  0
  4 13  1  0  0  0  0
  4 18  1  0  0  0  0
  4 19  1  0  0  0  0
  5  8  2  0  0  0  0
  5 16  1  0  0  0  0
  6 11  1  0  0  0  0
  6 16  2  0  0  0  0
  7 11  1  0  0  0  0
  7 17  1  0  0  0  0
  8  9  1  0  0  0  0
  9 11  2  0  0  0  0
  9 14  1  0  0  0  0
 10 12  1  0  0  0  0
 10 13  1  0  0  0  0
 12 15  1  0  0  0  0
 12 21  1  0  0  0  0
 14 17  2  0  0  0  0
 15 18  1  0  0  0  0
 19 22  1  0  0  0  0
M  END
> <Value>
5.899998417198648

> <Relation>
<

> <SourceURI>
mol:CHEMBL1969879

$$$$

Generated by Molecular Materials Informatics

 21 22  0  0  0  0  0  0  0  0999 V2000
    3.3125   -5.7375    0.0000 I   0  0  0  0  0  0  0  0  0  0  0  0
   -1.8836    3.2625    0.0000 I   0  0  0  0  0  0  0  0  0  0  0  0
   -1.8836   -5.7375    0.0000 Br  0  0  0  0  0  0  0  0  0  0  0  0
    3.3125    3.2625    0.0000 Br  0  0  0  0  0  0  0  0  0  0  0  0
    0.7145   -7.2375    0.0000 O   0  0  0  0  0  0  0  0  0  0  0  0
    0.7145    4.7625    0.0000 O   0  0  0  0  0  0  0  0  0  0  0  0
    0.7145   -1.2375    0.0000 C   0  0  0  0  0  0  0  0  0  0  0  0
    0.7145   -2.7375    0.0000 C   0  0  0  0  0  0  0  0  0  0  0  0
    0.7145    0.2625    0.0000 C   0  0  0  0  0  0  0  0  0  0  0  0
    2.0134   -3.4875    0.0000 C   0  0  0  0  0  0  0  0  0  0  0  0
   -0.5845    1.0125    0.0000 C   0  0  0  0  0  0  0  0  0  0  0  0
   -0.5845   -3.4875    0.0000 C   0  0  0  0  0  0  0  0  0  0  0  0
    2.0134    1.0125    0.0000 C   0  0  0  0  0  0  0  0  0  0  0  0
    2.0134   -4.9875    0.0000 C   0  0  0  0  0  0  0  0  0  0  0  0
   -0.5845    2.5125    0.0000 C   0  0  0  0  0  0  0  0  0  0  0  0
   -0.5845   -4.9875    0.0000 C   0  0  0  0  0  0  0  0  0  0  0  0
    2.0134    2.5125    0.0000 C   0  0  0  0  0  0  0  0  0  0  0  0
    0.7145   -5.7375    0.0000 C   0  0  0  0  0  0  0  0  0  0  0  0
    0.7145    3.2625    0.0000 C   0  0  0  0  0  0  0  0  0  0  0  0
    2.2145   -1.2375    0.0000 C   0  0  0  0  0  0  0  0  0  0  0  0
   -0.7855   -1.2375    0.0000 C   0  0  0  0  0  0  0  0  0  0  0  0
  1 14  1  0  0  0  0
  2 15  1  0  0  0  0
  3 16  1  0  0  0  0
  4 17  1  0  0  0  0
  5 18  1  0  0  0  0
  6 19  1  0  0  0  0
  7  8  1  0  0  0  0
  7  9  1  0  0  0  0
  7 20  1  0  0  0  0
  7 21  1  0  0  0  0
  8 10  1  0  0  0  0
  8 12  2  0  0  0  0
  9 11  1  0  0  0  0
  9 13  2  0  0  0  0
 10 14  2  0  0  0  0
 11 15  2  0  0  0  0
 12 16  1  0  0  0  0
 13 17  1  0  0  0  0
 14 18  1  0  0  0  0
 15 19  1  0  0  0  0
 16 18  2  0  0  0  0
 17 19  2  0  0  0  0
M  END
> <Value>
6.299997602857746

> <Relation>
=

> <SourceURI>
mol:CHEMBL1964382

$$$$

Generated by Molecular Materials Informatics

 20 22  0  0  0  0  0  0  0  0999 V2000
   -2.3057   -2.3063    0.0000 O   0  0  0  0  0  0  0  0  0  0  0  0
    0.2923   -2.3063    0.0000 N   0  0  0  0  0  0  0  0  0  0  0  0
    0.2923    2.1937    0.0000 N   0  0  0  0  0  0  0  0  0  0  0  0
   -1.0068   -4.5562    0.0000 N   0  0  0  0  0  0  0  0  0  0  0  0
   -3.6047   -4.5562    0.0000 N   0  0  0  0  0  0  0  0  0  0  0  0
   -3.6047   -7.5562    0.0000 N   0  0  0  0  0  0  0  0  0  0  0  0
    1.5914   -0.0563    0.0000 C   0  0  0  0  0  0  0  0  0  0  0  0
    0.2923   -0.8063    0.0000 C   0  0  0  0  0  0  0  0  0  0  0  0
    1.5914    1.4437    0.0000 C   0  0  0  0  0  0  0  0  0  0  0  0
   -1.0068   -3.0562    0.0000 C   0  0  0  0  0  0  0  0  0  0  0  0
   -1.0068   -0.0563    0.0000 C   0  0  0  0  0  0  0  0  0  0  0  0
    2.8902   -0.8063    0.0000 C   0  0  0  0  0  0  0  0  0  0  0  0
    2.8902    2.1937    0.0000 C   0  0  0  0  0  0  0  0  0  0  0  0
   -2.3057   -5.3062    0.0000 C   0  0  0  0  0  0  0  0  0  0  0  0
   -1.0068    1.4437    0.0000 C   0  0  0  0  0  0  0  0  0  0  0  0
    4.1893   -0.0563    0.0000 C   0  0  0  0  0  0  0  0  0  0  0  0
    4.1893    1.4437    0.0000 C   0  0  0  0  0  0  0  0  0  0  0  0
   -2.3057   -6.8062    0.0000 C   0  0  0  0  0  0  0  0  0  0  0  0
   -4.9038   -5.3062    0.0000 C   0  0  0  0  0  0  0  0  0  0  0  0
   -4.9038   -6.8062    0.0000 C   0  0  0  0  0  0  0  0  0  0  0  0
  1 10  2  0  0  0  0
  2  8  1  0  0  0  0
  2 10  1  0  0  0  0
  3  9  1  0  0  0  0
  3 15  2  0  0  0  0
  4 10  1  0  0  0  0
  4 14  1  0  0  0  0
  5 14  1  0  0  0  0
  5 19  2  0  0  0  0
  6 18  1  0  0  0  0
  6 20  2  0  0  0  0
  7  8  1  0  0  0  0
  7  9  1  0  0  0  0
  7 12  2  0  0  0  0
  8 11  2  0  0  0  0
  9 13  2  0  0  0  0
 11 15  1  0  0  0  0
 12 16  1  0  0  0  0
 13 17  1  0  0  0  0
 14 18  2  0  0  0  0
 16 17  2  0  0  0  0
 19 20  1  0  0  0  0
M  END
> <Value>
5.899998417198648

> <Relation>
<

> <SourceURI>
mol:CHEMBL1981720

$$$$

Generated by Molecular Materials Informatics

 20 21  0  0  0  0  0  0  0  0999 V2000
    2.8903    0.6188    0.0000 Cl  0  0  0  0  0  0  0  0  0  0  0  0
    2.8903    6.6188    0.0000 O   0  0  0  0  0  0  0  0  0  0  0  0
    4.1894    2.8688    0.0000 N   0  0  0  0  0  0  0  0  0  0  0  0
   -4.9039    0.6188    0.0000 N   0  0  0  0  0  0  0  0  0  0  0  0
    0.2923    9.6187    0.0000 N   0  0  0  0  0  0  0  0  0  0  0  0
    1.5914    2.8688    0.0000 C   0  0  0  0  0  0  0  0  0  0  0  0
    2.8903    2.1187    0.0000 C   0  0  0  0  0  0  0  0  0  0  0  0
    2.8903    5.1187    0.0000 C   0  0  0  0  0  0  0  0  0  0  0  0
    1.5914    4.3687    0.0000 C   0  0  0  0  0  0  0  0  0  0  0  0
    4.1894    4.3687    0.0000 C   0  0  0  0  0  0  0  0  0  0  0  0
    0.2923    2.1187    0.0000 C   0  0  0  0  0  0  0  0  0  0  0  0
   -1.0068    2.8688    0.0000 C   0  0  0  0  0  0  0  0  0  0  0  0
   -2.3057    2.1187    0.0000 C   0  0  0  0  0  0  0  0  0  0  0  0
    1.5914    7.3687    0.0000 C   0  0  0  0  0  0  0  0  0  0  0  0
   -3.6048    2.8688    0.0000 C   0  0  0  0  0  0  0  0  0  0  0  0
   -2.3057    0.6188    0.0000 C   0  0  0  0  0  0  0  0  0  0  0  0
    1.5914    8.8687    0.0000 C   0  0  0  0  0  0  0  0  0  0  0  0
   -4.9039    2.1187    0.0000 C   0  0  0  0  0  0  0  0  0  0  0  0
   -3.6048   -0.1312    0.0000 C   0  0  0  0  0  0  0  0  0  0  0  0
    2.8903    9.6187    0.0000 C   0  0  0  0  0  0  0  0  0  0  0  0
  1  7  1  0  0  0  0
  2  8  1  0  0  0  0
  2 14  1  0  0  0  0
  3  7  2  0  0  0  0
  3 10  1  0  0  0  0
  4 18  2  0  0  0  0
  4 19  1  0  0  0  0
  5 17  1  0  0  0  0
  6  7  1  0  0  0  0
  6  9  2  0  0  0  0
 11  6  1  0  0  0  0
  8  9  1  0  0  0  0
  8 10  2  0  0  0  0
 11 12  2  0  0  0  0
 12 13  1  0  0  0  0
 13 15  2  0  0  0  0
 13 16  1  0  0  0  0
 14 17  1  0  0  0  0
 15 18  1  0  0  0  0
 16 19  2  0  0  0  0
 17 20  1  0  0  0  0
M  END
> <Value>
6.0

> <Relation>
=

> <SourceURI>
mol:CHEMBL1993548

$$$$

Generated by Molecular Materials Informatics

 28 31  0  0  0  0  0  0  0  0999 V2000
    7.8593  -12.1768    0.0000 C   0  0  0  0  0  0  0  0  0  0  0  0
    8.2461  -10.7259    0.0000 N   0  0  0  0  0  0  0  0  0  0  0  0
    8.9231  -13.2408    0.0000 O   0  0  0  0  0  0  0  0  0  0  0  0
    9.6970  -10.3391    0.0000 C   0  0  0  0  0  0  0  0  0  0  0  0
   10.7525  -11.4040    0.0000 C   0  0  0  0  0  0  0  0  0  0  0  0
   12.2033  -11.0085    0.0000 C   0  0  0  0  0  0  0  0  0  0  0  0
   12.5815   -9.5671    0.0000 C   0  0  0  0  0  0  0  0  0  0  0  0
   11.5280   -8.5098    0.0000 C   0  0  0  0  0  0  0  0  0  0  0  0
   10.0813   -8.8990    0.0000 C   0  0  0  0  0  0  0  0  0  0  0  0
    0.5187  -18.6770    0.0000 N   0  0  0  0  0  0  0  0  0  0  0  0
    0.5296  -20.1862    0.0000 C   0  0  0  0  0  0  0  0  0  0  0  0
    1.8295  -20.9248    0.0000 N   0  0  0  0  0  0  0  0  0  0  0  0
    1.8182  -17.9257    0.0000 C   0  0  0  0  0  0  0  0  0  0  0  0
    1.8182  -16.4271    0.0000 N   0  0  0  0  0  0  0  0  0  0  0  0
    3.1312  -18.6698    0.0000 C   0  0  0  0  0  0  0  0  0  0  0  0
    3.1339  -20.1666    0.0000 C   0  0  0  0  0  0  0  0  0  0  0  0
    4.5611  -20.6321    0.0000 S   0  0  0  0  0  0  0  0  0  0  0  0
    5.4400  -19.4165    0.0000 N   0  0  0  0  0  0  0  0  0  0  0  0
    4.5577  -18.2053    0.0000 C   0  0  0  0  0  0  0  0  0  0  0  0
    5.0154  -16.7710    0.0000 C   0  0  0  0  0  0  0  0  0  0  0  0
    6.4819  -16.4692    0.0000 C   0  0  0  0  0  0  0  0  0  0  0  0
    6.9470  -15.0427    0.0000 C   0  0  0  0  0  0  0  0  0  0  0  0
    5.9389  -13.9289    0.0000 C   0  0  0  0  0  0  0  0  0  0  0  0
    4.4610  -14.2498    0.0000 C   0  0  0  0  0  0  0  0  0  0  0  0
    4.0082  -15.6765    0.0000 C   0  0  0  0  0  0  0  0  0  0  0  0
    6.3948  -12.4940    0.0000 N   0  0  0  0  0  0  0  0  0  0  0  0
    9.0254   -7.8453    0.0000 F   0  0  0  0  0  0  0  0  0  0  0  0
   13.2632  -12.0581    0.0000 C   0  0  0  0  0  0  0  0  0  0  0  0
  1  3  2  0  0  0  0
  2  4  1  0  0  0  0
  4  5  2  0  0  0  0
  5  6  1  0  0  0  0
  6  7  2  0  0  0  0
  7  8  1  0  0  0  0
  8  9  2  0  0  0  0
  9  4  1  0  0  0  0
 10 11  2  0  0  0  0
 11 12  1  0  0  0  0
 12 16  2  0  0  0  0
 15 13  2  0  0  0  0
 13 10  1  0  0  0  0
 13 14  1  0  0  0  0
 15 16  1  0  0  0  0
 16 17  1  0  0  0  0
 17 18  1  0  0  0  0
 18 19  2  0  0  0  0
 19 15  1  0  0  0  0
 19 20  1  0  0  0  0
 20 21  2  0  0  0  0
 21 22  1  0  0  0  0
 22 23  2  0  0  0  0
 23 24  1  0  0  0  0
 24 25  2  0  0  0  0
 25 20  1  0  0  0  0
 23 26  1  0  0  0  0
 26  1  1  0  0  0  0
  9 27  1  0  0  0  0
  1  2  1  0  0  0  0
  6 28  1  0  0  0  0
M  END
> <Value>
5.899998417198648

> <Relation>
<

> <SourceURI>
mol:CHEMBL262433

$$$$

Generated by Molecular Materials Informatics

 21 23  0  0  0  0  0  0  0  0999 V2000
   -0.5938   -2.4401    0.0000 N   0  0  0  0  0  0  0  0  0  0  0  0
    3.4308   -1.9766    0.0000 C   0  0  0  0  0  0  0  0  0  0  0  0
    2.1318   -2.7266    0.0000 N   0  0  0  0  0  0  0  0  0  0  0  0
    0.8328   -1.9766    0.0000 C   0  0  0  0  0  0  0  0  0  0  0  0
    0.8328   -0.4766    0.0000 C   0  0  0  0  0  0  0  0  0  0  0  0
    2.1318    0.2734    0.0000 C   0  0  0  0  0  0  0  0  0  0  0  0
    3.4308   -0.4766    0.0000 N   0  0  0  0  0  0  0  0  0  0  0  0
   -1.4754   -1.2266    0.0000 N   0  0  0  0  0  0  0  0  0  0  0  0
   -0.5938   -0.0130    0.0000 C   0  0  0  0  0  0  0  0  0  0  0  0
    2.1318    1.7734    0.0000 N   0  0  0  0  0  0  0  0  0  0  0  0
   -1.0574    1.4136    0.0000 C   0  0  0  0  0  0  0  0  0  0  0  0
   -2.5245    1.7254    0.0000 C   0  0  0  0  0  0  0  0  0  0  0  0
   -2.9882    3.1521    0.0000 C   0  0  0  0  0  0  0  0  0  0  0  0
   -1.9843    4.2667    0.0000 C   0  0  0  0  0  0  0  0  0  0  0  0
   -0.5172    3.9548    0.0000 C   0  0  0  0  0  0  0  0  0  0  0  0
   -0.0536    2.5283    0.0000 C   0  0  0  0  0  0  0  0  0  0  0  0
   -2.4480    5.6934    0.0000 C   0  0  0  0  0  0  0  0  0  0  0  0
   -1.0574   -3.8666    0.0000 C   0  0  0  0  0  0  0  0  0  0  0  0
   -1.5209   -5.2932    0.0000 C   0  0  0  0  0  0  0  0  0  0  0  0
   -2.4840   -3.4032    0.0000 C   0  0  0  0  0  0  0  0  0  0  0  0
    0.3693   -4.3303    0.0000 C   0  0  0  0  0  0  0  0  0  0  0  0
  4  1  1  0  0  0  0
  1  8  1  0  0  0  0
 18  1  1  0  0  0  0
  2  3  2  0  0  0  0
  2  7  1  0  0  0  0
  4  3  1  0  0  0  0
  4  5  2  0  0  0  0
  5  6  1  0  0  0  0
  5  9  1  0  0  0  0
  6  7  2  0  0  0  0
  6 10  1  0  0  0  0
  9  8  2  0  0  0  0
 11  9  1  0  0  0  0
 11 12  2  0  0  0  0
 11 16  1  0  0  0  0
 12 13  1  0  0  0  0
 13 14  2  0  0  0  0
 14 15  1  0  0  0  0
 14 17  1  0  0  0  0
 15 16  2  0  0  0  0
 18 19  1  0  0  0  0
 18 20  1  0  0  0  0
 18 21  1  0  0  0  0
M  END
> <Value>
5.899998417198648

> <Relation>
<

> <SourceURI>
mol:CHEMBL306380

$$$$

Generated by Molecular Materials Informatics

 28 30  0  0  0  0  0  0  0  0999 V2000
   -9.9108    4.6874    0.0000 Cl  0  0  0  0  0  0  0  0  0  0  0  0
   -6.0138   -0.5625    0.0000 S   0  0  0  0  0  0  0  0  0  0  0  0
   -3.6167   -4.3125    0.0000 O   0  0  0  0  0  0  0  0  0  0  0  0
   -0.8177   -2.0625    0.0000 O   0  0  0  0  0  0  0  0  0  0  0  0
   -3.4158   -2.0625    0.0000 N   0  0  0  0  0  0  0  0  0  0  0  0
   -3.4158   -0.5625    0.0000 N   0  0  0  0  0  0  0  0  0  0  0  0
   -4.7147    1.6874    0.0000 N   0  0  0  0  0  0  0  0  0  0  0  0
   -2.1167   -4.3125    0.0000 C   0  0  0  0  0  0  0  0  0  0  0  0
   -2.1167   -5.8124    0.0000 C   0  0  0  0  0  0  0  0  0  0  0  0
   -0.6168   -4.3125    0.0000 C   0  0  0  0  0  0  0  0  0  0  0  0
   -2.1167   -2.8125    0.0000 C   0  0  0  0  0  0  0  0  0  0  0  0
   -0.8177   -6.5624    0.0000 C   0  0  0  0  0  0  0  0  0  0  0  0
    0.1332   -3.0134    0.0000 C   0  0  0  0  0  0  0  0  0  0  0  0
   -3.4158   -6.5624    0.0000 C   0  0  0  0  0  0  0  0  0  0  0  0
    0.1332   -5.6115    0.0000 C   0  0  0  0  0  0  0  0  0  0  0  0
   -0.8177   -8.0624    0.0000 C   0  0  0  0  0  0  0  0  0  0  0  0
    1.6332   -3.0134    0.0000 C   0  0  0  0  0  0  0  0  0  0  0  0
   -3.4158   -8.0624    0.0000 C   0  0  0  0  0  0  0  0  0  0  0  0
    1.6332   -5.6115    0.0000 C   0  0  0  0  0  0  0  0  0  0  0  0
   -4.7147    0.1875    0.0000 C   0  0  0  0  0  0  0  0  0  0  0  0
   -2.1167   -8.8124    0.0000 C   0  0  0  0  0  0  0  0  0  0  0  0
    2.3832   -4.3125    0.0000 C   0  0  0  0  0  0  0  0  0  0  0  0
   -6.0138    2.4374    0.0000 C   0  0  0  0  0  0  0  0  0  0  0  0
   -7.3128    1.6874    0.0000 C   0  0  0  0  0  0  0  0  0  0  0  0
   -6.0138    3.9374    0.0000 C   0  0  0  0  0  0  0  0  0  0  0  0
   -8.6117    3.9374    0.0000 C   0  0  0  0  0  0  0  0  0  0  0  0
   -8.6117    2.4374    0.0000 C   0  0  0  0  0  0  0  0  0  0  0  0
   -7.3128    4.6874    0.0000 C   0  0  0  0  0  0  0  0  0  0  0  0
  1 26  1  0  0  0  0
  2 20  2  0  0  0  0
  3  8  1  0  0  0  0
  4 11  2  0  0  0  0
  5  6  1  0  0  0  0
  5 11  1  0  0  0  0
  6 20  1  0  0  0  0
  7 20  1  0  0  0  0
  7 23  1  0  0  0  0
  8  9  1  0  0  0  0
  8 10  1  0  0  0  0
  8 11  1  0  0  0  0
  9 12  2  0  0  0  0
  9 14  1  0  0  0  0
 10 13  2  0  0  0  0
 10 15  1  0  0  0  0
 12 16  1  0  0  0  0
 13 17  1  0  0  0  0
 14 18  2  0  0  0  0
 15 19  2  0  0  0  0
 16 21  2  0  0  0  0
 17 22  2  0  0  0  0
 18 21  1  0  0  0  0
 19 22  1  0  0  0  0
 23 24  2  0  0  0  0
 23 25  1  0  0  0  0
 24 27  1  0  0  0  0
 25 28  2  0  0  0  0
 26 27  2  0  0  0  0
 26 28  1  0  0  0  0
M  END
> <Value>
6.0999990348465305

> <Relation>
=

> <SourceURI>
mol:CHEMBL1966722

$$$$

Generated by Molecular Materials Informatics

 31 35  0  0  0  0  0  0  0  0999 V2000
   -2.8206   -7.2622    0.0000 Cl  0  0  0  0  0  0  0  0  0  0  0  0
   -4.9048   -1.0649    0.0000 O   0  0  0  0  0  0  0  0  0  0  0  0
   -1.9703    1.9858    0.0000 N   0  0  0  0  0  0  0  0  0  0  0  0
   -2.8519    0.7724    0.0000 N   0  0  0  0  0  0  0  0  0  0  0  0
   -2.4337   -1.8678    0.0000 N   0  0  0  0  0  0  0  0  0  0  0  0
    5.7272   -1.2323    0.0000 N   0  0  0  0  0  0  0  0  0  0  0  0
    3.5101   -2.2194    0.0000 N   0  0  0  0  0  0  0  0  0  0  0  0
    4.9772   -2.5314    0.0000 N   0  0  0  0  0  0  0  0  0  0  0  0
   -0.5438    0.0224    0.0000 C   0  0  0  0  0  0  0  0  0  0  0  0
   -0.5438    1.5223    0.0000 C   0  0  0  0  0  0  0  0  0  0  0  0
   -1.9703   -0.4413    0.0000 C   0  0  0  0  0  0  0  0  0  0  0  0
    2.0544    0.0224    0.0000 C   0  0  0  0  0  0  0  0  0  0  0  0
    0.7553   -0.7276    0.0000 C   0  0  0  0  0  0  0  0  0  0  0  0
    3.3532   -0.7276    0.0000 C   0  0  0  0  0  0  0  0  0  0  0  0
    0.7553    2.2723    0.0000 C   0  0  0  0  0  0  0  0  0  0  0  0
    2.0544    1.5223    0.0000 C   0  0  0  0  0  0  0  0  0  0  0  0
    4.7236   -0.1176    0.0000 C   0  0  0  0  0  0  0  0  0  0  0  0
   -3.9010   -2.1796    0.0000 C   0  0  0  0  0  0  0  0  0  0  0  0
   -4.3646   -3.6063    0.0000 C   0  0  0  0  0  0  0  0  0  0  0  0
    7.2190   -1.0754    0.0000 C   0  0  0  0  0  0  0  0  0  0  0  0
   -3.3608   -4.7208    0.0000 C   0  0  0  0  0  0  0  0  0  0  0  0
    8.1006   -2.2890    0.0000 C   0  0  0  0  0  0  0  0  0  0  0  0
   -5.8317   -3.9181    0.0000 C   0  0  0  0  0  0  0  0  0  0  0  0
   -3.8244   -6.1475    0.0000 C   0  0  0  0  0  0  0  0  0  0  0  0
   -6.2953   -5.3446    0.0000 C   0  0  0  0  0  0  0  0  0  0  0  0
   -5.2915   -6.4593    0.0000 C   0  0  0  0  0  0  0  0  0  0  0  0
    9.5924   -2.1321    0.0000 C   0  0  0  0  0  0  0  0  0  0  0  0
    7.4906   -3.6594    0.0000 C   0  0  0  0  0  0  0  0  0  0  0  0
   10.4740   -3.3458    0.0000 C   0  0  0  0  0  0  0  0  0  0  0  0
    8.3722   -4.8728    0.0000 C   0  0  0  0  0  0  0  0  0  0  0  0
    9.8640   -4.7161    0.0000 C   0  0  0  0  0  0  0  0  0  0  0  0
  1 24  1  0  0  0  0
  2 18  2  0  0  0  0
  3  4  1  0  0  0  0
  3 10  1  0  0  0  0
  4 11  2  0  0  0  0
  5 11  1  0  0  0  0
  5 18  1  0  0  0  0
  6  8  1  0  0  0  0
  6 17  1  0  0  0  0
  6 20  1  0  0  0  0
  7  8  2  0  0  0  0
  7 14  1  0  0  0  0
  9 10  1  0  0  0  0
  9 11  1  0  0  0  0
  9 13  2  0  0  0  0
 10 15  2  0  0  0  0
 12 13  1  0  0  0  0
 12 14  1  0  0  0  0
 12 16  2  0  0  0  0
 14 17  2  0  0  0  0
 15 16  1  0  0  0  0
 18 19  1  0  0  0  0
 19 21  2  0  0  0  0
 19 23  1  0  0  0  0
 20 22  1  0  0  0  0
 21 24  1  0  0  0  0
 22 27  2  0  0  0  0
 22 28  1  0  0  0  0
 23 25  2  0  0  0  0
 24 26  2  0  0  0  0
 25 26  1  0  0  0  0
 27 29  1  0  0  0  0
 28 30  2  0  0  0  0
 29 31  2  0  0  0  0
 30 31  1  0  0  0  0
M  END
> <Value>
6.599997654072044

> <Relation>
=

> <SourceURI>
mol:CHEMBL1983595

$$$$

Generated by Molecular Materials Informatics

 17 18  0  0  0  0  0  0  0  0999 V2000
    1.4289    2.1750    0.0000 O   0  0  0  0  0  0  0  0  0  0  0  0
   -1.1691   -3.8250    0.0000 O   0  0  0  0  0  0  0  0  0  0  0  0
    0.1299   -1.5750    0.0000 N   0  0  0  0  0  0  0  0  0  0  0  0
   -1.1691    0.6750    0.0000 N   0  0  0  0  0  0  0  0  0  0  0  0
    5.3261   -0.0750    0.0000 N   0  0  0  0  0  0  0  0  0  0  0  0
    0.1299   -0.0750    0.0000 C   0  0  0  0  0  0  0  0  0  0  0  0
    1.4289    0.6750    0.0000 C   0  0  0  0  0  0  0  0  0  0  0  0
    2.7280   -0.0750    0.0000 C   0  0  0  0  0  0  0  0  0  0  0  0
   -1.1691   -2.3250    0.0000 C   0  0  0  0  0  0  0  0  0  0  0  0
    1.4289   -2.3250    0.0000 C   0  0  0  0  0  0  0  0  0  0  0  0
   -2.4682   -0.0750    0.0000 C   0  0  0  0  0  0  0  0  0  0  0  0
    2.7280   -1.5750    0.0000 C   0  0  0  0  0  0  0  0  0  0  0  0
   -2.4682   -1.5750    0.0000 C   0  0  0  0  0  0  0  0  0  0  0  0
    4.0270    0.6750    0.0000 C   0  0  0  0  0  0  0  0  0  0  0  0
   -3.7671    0.6750    0.0000 C   0  0  0  0  0  0  0  0  0  0  0  0
    6.6250    0.6750    0.0000 C   0  0  0  0  0  0  0  0  0  0  0  0
    5.3261   -1.5750    0.0000 C   0  0  0  0  0  0  0  0  0  0  0  0
  1  7  1  0  0  0  0
  2  9  2  0  0  0  0
  3  6  1  0  0  0  0
  3  9  1  0  0  0  0
  3 10  1  0  0  0  0
  4  6  2  0  0  0  0
  4 11  1  0  0  0  0
  5 14  1  0  0  0  0
  5 16  1  0  0  0  0
  5 17  1  0  0  0  0
  6  7  1  0  0  0  0
  7  8  2  0  0  0  0
  8 12  1  0  0  0  0
  8 14  1  0  0  0  0
  9 13  1  0  0  0  0
 10 12  2  0  0  0  0
 11 13  2  0  0  0  0
 11 15  1  0  0  0  0
M  END
> <Value>
7.0

> <Relation>
=

> <SourceURI>
mol:CHEMBL1988581

$$$$

Generated by Molecular Materials Informatics

 34 37  0  0  0  0  0  0  0  0999 V2000
   -2.7965    2.6116    0.0000 O   0  0  0  0  0  0  0  0  0  0  0  0
   -4.5905   -7.5729    0.0000 O   0  0  0  0  0  0  0  0  0  0  0  0
    4.6709    3.0874    0.0000 O   0  0  0  0  0  0  0  0  0  0  0  0
   -7.5821   -7.3487    0.0000 O   0  0  0  0  0  0  0  0  0  0  0  0
   12.4651    1.5874    0.0000 O   0  0  0  0  0  0  0  0  0  0  0  0
   -0.3989   -1.5979    0.0000 N   0  0  0  0  0  0  0  0  0  0  0  0
   -0.3989    1.7727    0.0000 N   0  0  0  0  0  0  0  0  0  0  0  0
    5.9699    0.8374    0.0000 N   0  0  0  0  0  0  0  0  0  0  0  0
    9.8671    1.5874    0.0000 N   0  0  0  0  0  0  0  0  0  0  0  0
   -1.8614   -1.2640    0.0000 C   0  0  0  0  0  0  0  0  0  0  0  0
   -2.5121    0.0874    0.0000 C   0  0  0  0  0  0  0  0  0  0  0  0
    0.7739   -0.6626    0.0000 C   0  0  0  0  0  0  0  0  0  0  0  0
    0.7739    0.8374    0.0000 C   0  0  0  0  0  0  0  0  0  0  0  0
   -1.8614    1.4389    0.0000 C   0  0  0  0  0  0  0  0  0  0  0  0
   -4.2021   -2.3913    0.0000 C   0  0  0  0  0  0  0  0  0  0  0  0
   -2.7063   -2.5033    0.0000 C   0  0  0  0  0  0  0  0  0  0  0  0
   -5.0470   -3.6306    0.0000 C   0  0  0  0  0  0  0  0  0  0  0  0
   -4.0079    0.1996    0.0000 C   0  0  0  0  0  0  0  0  0  0  0  0
    2.0728    1.5874    0.0000 C   0  0  0  0  0  0  0  0  0  0  0  0
    3.3719    0.8374    0.0000 C   0  0  0  0  0  0  0  0  0  0  0  0
   -4.8530   -1.0399    0.0000 C   0  0  0  0  0  0  0  0  0  0  0  0
    2.0728   -1.4126    0.0000 C   0  0  0  0  0  0  0  0  0  0  0  0
    3.3719   -0.6626    0.0000 C   0  0  0  0  0  0  0  0  0  0  0  0
   -4.3963   -4.9820    0.0000 C   0  0  0  0  0  0  0  0  0  0  0  0
   -5.2412   -6.2215    0.0000 C   0  0  0  0  0  0  0  0  0  0  0  0
    4.6709    1.5874    0.0000 C   0  0  0  0  0  0  0  0  0  0  0  0
   -6.5428   -3.5186    0.0000 C   0  0  0  0  0  0  0  0  0  0  0  0
   -6.7370   -6.1093    0.0000 C   0  0  0  0  0  0  0  0  0  0  0  0
   -7.3879   -4.7578    0.0000 C   0  0  0  0  0  0  0  0  0  0  0  0
    7.2689    1.5874    0.0000 C   0  0  0  0  0  0  0  0  0  0  0  0
   -5.4354   -8.8122    0.0000 C   0  0  0  0  0  0  0  0  0  0  0  0
    8.5680    0.8374    0.0000 C   0  0  0  0  0  0  0  0  0  0  0  0
   11.1660    0.8374    0.0000 C   0  0  0  0  0  0  0  0  0  0  0  0
   11.1660   -0.6626    0.0000 C   0  0  0  0  0  0  0  0  0  0  0  0
  1 14  2  0  0  0  0
  2 25  1  0  0  0  0
  2 31  1  0  0  0  0
  3 26  2  0  0  0  0
  4 28  1  0  0  0  0
  5 33  2  0  0  0  0
  6 10  1  0  0  0  0
  6 12  1  0  0  0  0
  7 13  1  0  0  0  0
  7 14  1  0  0  0  0
  8 26  1  0  0  0  0
  8 30  1  0  0  0  0
  9 32  1  0  0  0  0
  9 33  1  0  0  0  0
 10 11  1  0  0  0  0
 10 16  2  0  0  0  0
 11 14  1  0  0  0  0
 11 18  2  0  0  0  0
 12 13  1  0  0  0  0
 12 22  2  0  0  0  0
 13 19  2  0  0  0  0
 15 16  1  0  0  0  0
 15 17  1  0  0  0  0
 15 21  2  0  0  0  0
 17 24  1  0  0  0  0
 17 27  2  0  0  0  0
 18 21  1  0  0  0  0
 19 20  1  0  0  0  0
 20 23  2  0  0  0  0
 20 26  1  0  0  0  0
 22 23  1  0  0  0  0
 24 25  2  0  0  0  0
 25 28  1  0  0  0  0
 27 29  1  0  0  0  0
 28 29  2  0  0  0  0
 30 32  1  0  0  0  0
 33 34  1  0  0  0  0
M  END
> <Value>
6.0

> <Relation>
=

> <SourceURI>
mol:CHEMBL1975500

$$$$

Generated by Molecular Materials Informatics

 28 31  0  0  0  0  0  0  0  0999 V2000
   -0.7376   -4.7803    0.0000 S   0  0  0  0  0  0  0  0  0  0  0  0
    4.5862    3.9333    0.0000 O   0  0  0  0  0  0  0  0  0  0  0  0
   -1.6193   -3.5666    0.0000 N   0  0  0  0  0  0  0  0  0  0  0  0
   -1.2011   -0.9266    0.0000 N   0  0  0  0  0  0  0  0  0  0  0  0
    1.9880    3.9333    0.0000 N   0  0  0  0  0  0  0  0  0  0  0  0
    3.2871    6.1833    0.0000 N   0  0  0  0  0  0  0  0  0  0  0  0
    0.6889   -2.8166    0.0000 C   0  0  0  0  0  0  0  0  0  0  0  0
    1.9880   -2.0666    0.0000 C   0  0  0  0  0  0  0  0  0  0  0  0
    0.6889   -4.3166    0.0000 C   0  0  0  0  0  0  0  0  0  0  0  0
   -0.7376   -2.3532    0.0000 C   0  0  0  0  0  0  0  0  0  0  0  0
    1.9880   -0.5666    0.0000 C   0  0  0  0  0  0  0  0  0  0  0  0
    3.2871   -2.8166    0.0000 C   0  0  0  0  0  0  0  0  0  0  0  0
    1.9880   -5.0666    0.0000 C   0  0  0  0  0  0  0  0  0  0  0  0
    3.2871   -4.3166    0.0000 C   0  0  0  0  0  0  0  0  0  0  0  0
    0.6889    0.1834    0.0000 C   0  0  0  0  0  0  0  0  0  0  0  0
    3.2871    0.1834    0.0000 C   0  0  0  0  0  0  0  0  0  0  0  0
    1.9880    2.4334    0.0000 C   0  0  0  0  0  0  0  0  0  0  0  0
    0.6889    1.6834    0.0000 C   0  0  0  0  0  0  0  0  0  0  0  0
    3.2871    1.6834    0.0000 C   0  0  0  0  0  0  0  0  0  0  0  0
    4.5862    6.9333    0.0000 C   0  0  0  0  0  0  0  0  0  0  0  0
    3.2871    4.6833    0.0000 C   0  0  0  0  0  0  0  0  0  0  0  0
    4.5862    8.4333    0.0000 C   0  0  0  0  0  0  0  0  0  0  0  0
    5.8851    6.1833    0.0000 C   0  0  0  0  0  0  0  0  0  0  0  0
    5.8851    9.1833    0.0000 C   0  0  0  0  0  0  0  0  0  0  0  0
    7.1842    6.9333    0.0000 C   0  0  0  0  0  0  0  0  0  0  0  0
    7.1842    8.4333    0.0000 C   0  0  0  0  0  0  0  0  0  0  0  0
    5.8851   10.6833    0.0000 C   0  0  0  0  0  0  0  0  0  0  0  0
    8.4833    6.1833    0.0000 C   0  0  0  0  0  0  0  0  0  0  0  0
  1  3  1  0  0  0  0
  1  9  1  0  0  0  0
  2 21  2  0  0  0  0
  3 10  2  0  0  0  0
  4 10  1  0  0  0  0
  5 17  1  0  0  0  0
  5 21  1  0  0  0  0
  6 20  1  0  0  0  0
  6 21  1  0  0  0  0
  7  8  1  0  0  0  0
  7  9  2  0  0  0  0
  7 10  1  0  0  0  0
  8 11  1  0  0  0  0
  8 12  2  0  0  0  0
  9 13  1  0  0  0  0
 11 15  2  0  0  0  0
 11 16  1  0  0  0  0
 12 14  1  0  0  0  0
 13 14  2  0  0  0  0
 15 18  1  0  0  0  0
 16 19  2  0  0  0  0
 17 18  2  0  0  0  0
 17 19  1  0  0  0  0
 20 22  2  0  0  0  0
 20 23  1  0  0  0  0
 22 24  1  0  0  0  0
 23 25  2  0  0  0  0
 24 26  2  0  0  0  0
 24 27  1  0  0  0  0
 25 26  1  0  0  0  0
 25 28  1  0  0  0  0
M  END
> <Value>
5.899998417198648

> <Relation>
<

> <SourceURI>
mol:CHEMBL1976328

$$$$

Generated by Molecular Materials Informatics

 27 30  0  0  0  0  0  0  0  0999 V2000
    6.4325  -14.9594    0.0000 N   0  0  0  0  0  0  0  0  0  0  0  0
    5.4212  -16.0688    0.0000 C   0  0  0  0  0  0  0  0  0  0  0  0
    5.8780  -17.4983    0.0000 C   0  0  0  0  0  0  0  0  0  0  0  0
    7.8921  -15.2683    0.0000 C   0  0  0  0  0  0  0  0  0  0  0  0
    8.3634  -16.6930    0.0000 C   0  0  0  0  0  0  0  0  0  0  0  0
    7.3621  -17.8092    0.0000 C   0  0  0  0  0  0  0  0  0  0  0  0
    8.1192  -19.1123    0.0000 S   0  0  0  0  0  0  0  0  0  0  0  0
    9.5848  -18.7957    0.0000 C   0  0  0  0  0  0  0  0  0  0  0  0
    9.7341  -17.2927    0.0000 C   0  0  0  0  0  0  0  0  0  0  0  0
    8.8950  -14.1492    0.0000 N   0  0  0  0  0  0  0  0  0  0  0  0
   11.0304  -16.5434    0.0000 C   0  0  0  0  0  0  0  0  0  0  0  0
   12.3298  -17.2994    0.0000 C   0  0  0  0  0  0  0  0  0  0  0  0
   13.6295  -16.5452    0.0000 C   0  0  0  0  0  0  0  0  0  0  0  0
   13.6238  -15.0434    0.0000 C   0  0  0  0  0  0  0  0  0  0  0  0
   12.3066  -14.2994    0.0000 C   0  0  0  0  0  0  0  0  0  0  0  0
   11.0213  -15.0501    0.0000 C   0  0  0  0  0  0  0  0  0  0  0  0
   14.9149  -14.2860    0.0000 N   0  0  0  0  0  0  0  0  0  0  0  0
   16.2149  -15.0283    0.0000 C   0  0  0  0  0  0  0  0  0  0  0  0
   17.5145  -14.2709    0.0000 N   0  0  0  0  0  0  0  0  0  0  0  0
   16.2238  -16.5283    0.0000 O   0  0  0  0  0  0  0  0  0  0  0  0
   18.8145  -15.0132    0.0000 C   0  0  0  0  0  0  0  0  0  0  0  0
   18.8132  -16.5132    0.0000 C   0  0  0  0  0  0  0  0  0  0  0  0
   20.1197  -17.2556    0.0000 C   0  0  0  0  0  0  0  0  0  0  0  0
   21.4130  -16.4978    0.0000 C   0  0  0  0  0  0  0  0  0  0  0  0
   21.3990  -14.9894    0.0000 C   0  0  0  0  0  0  0  0  0  0  0  0
   20.0995  -14.2547    0.0000 C   0  0  0  0  0  0  0  0  0  0  0  0
   20.1277  -18.7555    0.0000 C   0  0  0  0  0  0  0  0  0  0  0  0
  3  6  2  0  0  0  0
 13 14  2  0  0  0  0
  1  2  2  0  0  0  0
 14 15  1  0  0  0  0
  5  4  2  0  0  0  0
 15 16  2  0  0  0  0
 16 11  1  0  0  0  0
  9 11  1  0  0  0  0
  6  7  1  0  0  0  0
 14 17  1  0  0  0  0
  7  8  1  0  0  0  0
 17 18  1  0  0  0  0
  8  9  2  0  0  0  0
 18 19  1  0  0  0  0
  9  5  1  0  0  0  0
 18 20  2  0  0  0  0
  4  1  1  0  0  0  0
 19 21  1  0  0  0  0
  4 10  1  0  0  0  0
 21 22  2  0  0  0  0
  5  6  1  0  0  0  0
 22 23  1  0  0  0  0
 23 24  2  0  0  0  0
 11 12  2  0  0  0  0
 24 25  1  0  0  0  0
  2  3  1  0  0  0  0
 25 26  2  0  0  0  0
 26 21  1  0  0  0  0
 12 13  1  0  0  0  0
 23 27  1  0  0  0  0
M  END
> <Value>
5.899998417198648

> <Relation>
<

> <SourceURI>
mol:CHEMBL394619

$$$$

Generated by Molecular Materials Informatics

 26 29  0  0  0  0  0  0  0  0999 V2000
    4.8952   10.2152    0.0000 O   0  0  0  0  0  0  0  0  0  0  0  0
    2.2972   -0.2848    0.0000 N   0  0  0  0  0  0  0  0  0  0  0  0
    0.9981    1.9652    0.0000 N   0  0  0  0  0  0  0  0  0  0  0  0
   -1.7275   -0.7483    0.0000 N   0  0  0  0  0  0  0  0  0  0  0  0
    0.9981   -2.5348    0.0000 N   0  0  0  0  0  0  0  0  0  0  0  0
   -1.7275    1.6788    0.0000 N   0  0  0  0  0  0  0  0  0  0  0  0
    3.5961    1.9652    0.0000 N   0  0  0  0  0  0  0  0  0  0  0  0
    3.5961    7.9652    0.0000 N   0  0  0  0  0  0  0  0  0  0  0  0
   -0.3010   -0.2848    0.0000 C   0  0  0  0  0  0  0  0  0  0  0  0
    0.9981   -1.0348    0.0000 C   0  0  0  0  0  0  0  0  0  0  0  0
   -0.3010    1.2152    0.0000 C   0  0  0  0  0  0  0  0  0  0  0  0
    2.2972    1.2152    0.0000 C   0  0  0  0  0  0  0  0  0  0  0  0
   -0.3010   -3.2848    0.0000 C   0  0  0  0  0  0  0  0  0  0  0  0
    3.5961    3.4652    0.0000 C   0  0  0  0  0  0  0  0  0  0  0  0
   -2.6092    0.4652    0.0000 C   0  0  0  0  0  0  0  0  0  0  0  0
    3.5961    6.4652    0.0000 C   0  0  0  0  0  0  0  0  0  0  0  0
   -1.0510   -4.5838    0.0000 C   0  0  0  0  0  0  0  0  0  0  0  0
   -1.8010   -3.2848    0.0000 C   0  0  0  0  0  0  0  0  0  0  0  0
    2.2972    4.2152    0.0000 C   0  0  0  0  0  0  0  0  0  0  0  0
    4.8952    4.2152    0.0000 C   0  0  0  0  0  0  0  0  0  0  0  0
    2.2972    5.7152    0.0000 C   0  0  0  0  0  0  0  0  0  0  0  0
    4.8952    5.7152    0.0000 C   0  0  0  0  0  0  0  0  0  0  0  0
    4.8952    8.7152    0.0000 C   0  0  0  0  0  0  0  0  0  0  0  0
    2.2972    8.7152    0.0000 C   0  0  0  0  0  0  0  0  0  0  0  0
    6.1943    7.9652    0.0000 C   0  0  0  0  0  0  0  0  0  0  0  0
    2.2972   10.2152    0.0000 C   0  0  0  0  0  0  0  0  0  0  0  0
  1 23  2  0  0  0  0
  2 10  1  0  0  0  0
  2 12  2  0  0  0  0
  3 11  2  0  0  0  0
  3 12  1  0  0  0  0
  4  9  1  0  0  0  0
  4 15  2  0  0  0  0
  5 10  1  0  0  0  0
  5 13  1  0  0  0  0
  6 11  1  0  0  0  0
  6 15  1  0  0  0  0
  7 12  1  0  0  0  0
  7 14  1  0  0  0  0
  8 16  1  0  0  0  0
  8 23  1  0  0  0  0
  8 24  1  0  0  0  0
  9 10  2  0  0  0  0
  9 11  1  0  0  0  0
 13 17  1  0  0  0  0
 13 18  1  0  0  0  0
 14 19  2  0  0  0  0
 14 20  1  0  0  0  0
 16 21  2  0  0  0  0
 16 22  1  0  0  0  0
 17 18  1  0  0  0  0
 19 21  1  0  0  0  0
 20 22  2  0  0  0  0
 23 25  1  0  0  0  0
 24 26  1  0  0  0  0
M  END
> <Value>
6.599997654072044

> <Relation>
=

> <SourceURI>
mol:CHEMBL2006564

$$$$

Generated by Molecular Materials Informatics

 31 33  0  0  0  0  0  0  0  0999 V2000
   -3.8687   -6.0506    0.0000 O   0  0  0  0  0  0  0  0  0  0  0  0
   -1.3080   -8.6111    0.0000 O   0  0  0  0  0  0  0  0  0  0  0  0
   -9.1024    1.0102    0.0000 O   0  0  0  0  0  0  0  0  0  0  0  0
   -9.1024    4.0102    0.0000 O   0  0  0  0  0  0  0  0  0  0  0  0
   -1.3080   -3.4898    0.0000 N   0  0  0  0  0  0  0  0  0  0  0  0
    1.2526   -6.0506    0.0000 N   0  0  0  0  0  0  0  0  0  0  0  0
   -2.6071   -1.2398    0.0000 N   0  0  0  0  0  0  0  0  0  0  0  0
   -3.9062    1.0102    0.0000 N   0  0  0  0  0  0  0  0  0  0  0  0
   -5.2053   -1.2398    0.0000 N   0  0  0  0  0  0  0  0  0  0  0  0
   -1.3080   -4.9898    0.0000 C   0  0  0  0  0  0  0  0  0  0  0  0
   -0.2474   -6.0506    0.0000 C   0  0  0  0  0  0  0  0  0  0  0  0
   -2.3687   -6.0506    0.0000 C   0  0  0  0  0  0  0  0  0  0  0  0
   -1.3080   -7.1111    0.0000 C   0  0  0  0  0  0  0  0  0  0  0  0
   -2.6071   -2.7398    0.0000 C   0  0  0  0  0  0  0  0  0  0  0  0
    2.0026   -7.3497    0.0000 C   0  0  0  0  0  0  0  0  0  0  0  0
    3.5026   -7.3497    0.0000 C   0  0  0  0  0  0  0  0  0  0  0  0
   -3.9062   -0.4898    0.0000 C   0  0  0  0  0  0  0  0  0  0  0  0
   -3.9062   -3.4898    0.0000 C   0  0  0  0  0  0  0  0  0  0  0  0
   -5.2053    1.7602    0.0000 C   0  0  0  0  0  0  0  0  0  0  0  0
   -7.8033    1.7602    0.0000 C   0  0  0  0  0  0  0  0  0  0  0  0
   -7.8033    3.2602    0.0000 C   0  0  0  0  0  0  0  0  0  0  0  0
   -6.5042    1.0102    0.0000 C   0  0  0  0  0  0  0  0  0  0  0  0
   -5.2053   -2.7398    0.0000 C   0  0  0  0  0  0  0  0  0  0  0  0
   -5.2053    3.2602    0.0000 C   0  0  0  0  0  0  0  0  0  0  0  0
    1.2526   -8.6486    0.0000 C   0  0  0  0  0  0  0  0  0  0  0  0
   -6.5042    4.0102    0.0000 C   0  0  0  0  0  0  0  0  0  0  0  0
    5.0026   -7.3497    0.0000 C   0  0  0  0  0  0  0  0  0  0  0  0
    3.5026   -5.8497    0.0000 C   0  0  0  0  0  0  0  0  0  0  0  0
    3.5026   -8.8497    0.0000 C   0  0  0  0  0  0  0  0  0  0  0  0
   -9.1024   -0.4898    0.0000 C   0  0  0  0  0  0  0  0  0  0  0  0
  -10.4013    3.2602    0.0000 C   0  0  0  0  0  0  0  0  0  0  0  0
  1 12  2  0  0  0  0
  2 13  2  0  0  0  0
  3 20  1  0  0  0  0
  3 30  1  0  0  0  0
  4 21  1  0  0  0  0
  4 31  1  0  0  0  0
  5 10  1  0  0  0  0
  5 14  1  0  0  0  0
  6 11  1  0  0  0  0
  6 15  1  0  0  0  0
  7 14  2  0  0  0  0
  7 17  1  0  0  0  0
  8 17  1  0  0  0  0
  8 19  1  0  0  0  0
  9 17  2  0  0  0  0
  9 23  1  0  0  0  0
 10 11  2  0  0  0  0
 10 12  1  0  0  0  0
 11 13  1  0  0  0  0
 12 13  1  0  0  0  0
 14 18  1  0  0  0  0
 15 16  1  0  0  0  0
 15 25  1  0  0  0  0
 16 27  1  0  0  0  0
 16 28  1  0  0  0  0
 16 29  1  0  0  0  0
 18 23  2  0  0  0  0
 19 22  1  0  0  0  0
 19 24  2  0  0  0  0
 20 21  1  0  0  0  0
 20 22  2  0  0  0  0
 21 26  2  0  0  0  0
 24 26  1  0  0  0  0
M  END
> <Value>
7.700057099977233

> <Relation>
=

> <SourceURI>
mol:CHEMBL1964399

$$$$

Generated by Molecular Materials Informatics

 21 24  0  0  0  0  0  0  0  0999 V2000
    0.6826    4.4588    0.0000 O   0  0  0  0  0  0  0  0  0  0  0  0
    3.2808    4.4588    0.0000 O   0  0  0  0  0  0  0  0  0  0  0  0
    1.9817   -0.7912    0.0000 N   0  0  0  0  0  0  0  0  0  0  0  0
    3.2808    1.4588    0.0000 C   0  0  0  0  0  0  0  0  0  0  0  0
    3.2808   -0.0412    0.0000 C   0  0  0  0  0  0  0  0  0  0  0  0
    1.9817    2.2088    0.0000 C   0  0  0  0  0  0  0  0  0  0  0  0
    0.6826    1.4588    0.0000 C   0  0  0  0  0  0  0  0  0  0  0  0
    4.7073   -0.5046    0.0000 C   0  0  0  0  0  0  0  0  0  0  0  0
    0.6826   -0.0412    0.0000 C   0  0  0  0  0  0  0  0  0  0  0  0
    4.7073    1.9223    0.0000 C   0  0  0  0  0  0  0  0  0  0  0  0
    5.5890    0.7088    0.0000 C   0  0  0  0  0  0  0  0  0  0  0  0
    5.1708   -1.9313    0.0000 C   0  0  0  0  0  0  0  0  0  0  0  0
    1.9817    3.7088    0.0000 C   0  0  0  0  0  0  0  0  0  0  0  0
   -0.6163    2.2088    0.0000 C   0  0  0  0  0  0  0  0  0  0  0  0
   -0.6163   -0.7912    0.0000 C   0  0  0  0  0  0  0  0  0  0  0  0
    6.5975   -2.3948    0.0000 C   0  0  0  0  0  0  0  0  0  0  0  0
    4.2891   -3.1448    0.0000 C   0  0  0  0  0  0  0  0  0  0  0  0
   -1.9154    1.4588    0.0000 C   0  0  0  0  0  0  0  0  0  0  0  0
   -1.9154   -0.0412    0.0000 C   0  0  0  0  0  0  0  0  0  0  0  0
    6.5975   -3.8948    0.0000 C   0  0  0  0  0  0  0  0  0  0  0  0
    5.1708   -4.3582    0.0000 C   0  0  0  0  0  0  0  0  0  0  0  0
  1 13  2  0  0  0  0
  2 13  1  0  0  0  0
  3  5  2  0  0  0  0
  3  9  1  0  0  0  0
  4  5  1  0  0  0  0
  4  6  2  0  0  0  0
  4 10  1  0  0  0  0
  5  8  1  0  0  0  0
  6  7  1  0  0  0  0
  6 13  1  0  0  0  0
  7  9  1  0  0  0  0
  7 14  2  0  0  0  0
  8 11  1  0  0  0  0
  8 12  2  0  0  0  0
  9 15  2  0  0  0  0
 10 11  1  0  0  0  0
 12 16  1  0  0  0  0
 12 17  1  0  0  0  0
 14 18  1  0  0  0  0
 15 19  1  0  0  0  0
 16 20  1  0  0  0  0
 17 21  1  0  0  0  0
 18 19  2  0  0  0  0
 20 21  1  0  0  0  0
M  END
> <Value>
5.899998417198648

> <Relation>
<

> <SourceURI>
mol:CHEMBL1996831

$$$$

Generated by Molecular Materials Informatics

 33 36  0  0  0  0  0  0  0  0999 V2000
   -7.8070  -12.2662    0.0000 N   0  0  0  0  0  0  0  0  0  0  0  0
   -7.8092  -13.7705    0.0000 C   0  0  0  0  0  0  0  0  0  0  0  0
   -6.5096  -14.5212    0.0000 N   0  0  0  0  0  0  0  0  0  0  0  0
   -6.5129  -11.5158    0.0000 C   0  0  0  0  0  0  0  0  0  0  0  0
   -5.2103  -13.7621    0.0000 C   0  0  0  0  0  0  0  0  0  0  0  0
   -5.2122  -12.2596    0.0000 C   0  0  0  0  0  0  0  0  0  0  0  0
   -4.0338  -11.3109    0.0000 N   0  0  0  0  0  0  0  0  0  0  0  0
   -4.0240  -14.7008    0.0000 N   0  0  0  0  0  0  0  0  0  0  0  0
   -2.5617  -11.6338    0.0000 C   0  0  0  0  0  0  0  0  0  0  0  0
   -2.5517  -14.3574    0.0000 C   0  0  0  0  0  0  0  0  0  0  0  0
   -1.9060  -12.9911    0.0000 C   0  0  0  0  0  0  0  0  0  0  0  0
   -1.6331  -10.4571    0.0000 C   0  0  0  0  0  0  0  0  0  0  0  0
   -0.1473  -10.6764    0.0000 C   0  0  0  0  0  0  0  0  0  0  0  0
    0.7819   -9.5006    0.0000 C   0  0  0  0  0  0  0  0  0  0  0  0
    0.2274   -8.1052    0.0000 C   0  0  0  0  0  0  0  0  0  0  0  0
   -1.2653   -7.8924    0.0000 C   0  0  0  0  0  0  0  0  0  0  0  0
   -2.1879   -9.0702    0.0000 C   0  0  0  0  0  0  0  0  0  0  0  0
   -6.5172  -10.0158    0.0000 N   0  0  0  0  0  0  0  0  0  0  0  0
    1.1554   -6.9268    0.0000 N   0  0  0  0  0  0  0  0  0  0  0  0
    2.6399   -7.1412    0.0000 C   0  0  0  0  0  0  0  0  0  0  0  0
    3.5679   -5.9626    0.0000 N   0  0  0  0  0  0  0  0  0  0  0  0
    3.1964   -8.5341    0.0000 O   0  0  0  0  0  0  0  0  0  0  0  0
    5.0524   -6.1772    0.0000 C   0  0  0  0  0  0  0  0  0  0  0  0
    5.6035   -7.5726    0.0000 C   0  0  0  0  0  0  0  0  0  0  0  0
    7.0865   -7.7875    0.0000 C   0  0  0  0  0  0  0  0  0  0  0  0
    8.0161   -6.6083    0.0000 C   0  0  0  0  0  0  0  0  0  0  0  0
    7.4521   -5.2099    0.0000 C   0  0  0  0  0  0  0  0  0  0  0  0
    5.9707   -5.0018    0.0000 C   0  0  0  0  0  0  0  0  0  0  0  0
    5.4087   -3.6111    0.0000 F   0  0  0  0  0  0  0  0  0  0  0  0
    7.6423   -9.1806    0.0000 C   0  0  0  0  0  0  0  0  0  0  0  0
    8.3847  -10.4709    0.0000 F   0  0  0  0  0  0  0  0  0  0  0  0
    6.2923   -9.8342    0.0000 F   0  0  0  0  0  0  0  0  0  0  0  0
    8.9983   -8.5391    0.0000 F   0  0  0  0  0  0  0  0  0  0  0  0
  5  8  1  0  0  0  0
 16 17  2  0  0  0  0
 17 12  1  0  0  0  0
  9 12  1  0  0  0  0
  6  4  2  0  0  0  0
  4 18  1  0  0  0  0
  7  9  2  0  0  0  0
 15 19  1  0  0  0  0
  4  1  1  0  0  0  0
 19 20  1  0  0  0  0
  8 10  1  0  0  0  0
 20 21  1  0  0  0  0
 20 22  2  0  0  0  0
  9 11  1  0  0  0  0
 21 23  1  0  0  0  0
 10 11  1  0  0  0  0
 23 24  2  0  0  0  0
  2  3  1  0  0  0  0
 24 25  1  0  0  0  0
  5  6  1  0  0  0  0
 25 26  2  0  0  0  0
 12 13  2  0  0  0  0
 26 27  1  0  0  0  0
  3  5  2  0  0  0  0
 27 28  2  0  0  0  0
 28 23  1  0  0  0  0
 13 14  1  0  0  0  0
 28 29  1  0  0  0  0
  6  7  1  0  0  0  0
 25 30  1  0  0  0  0
 14 15  2  0  0  0  0
 30 31  1  0  0  0  0
  1  2  2  0  0  0  0
 30 32  1  0  0  0  0
 15 16  1  0  0  0  0
 30 33  1  0  0  0  0
M  END
> <Value>
6.0999990348465305

> <Relation>
=

> <SourceURI>
mol:CHEMBL411903

$$$$

Generated by Molecular Materials Informatics

 20 23  0  0  0  0  0  0  0  0999 V2000
   -4.0000   -7.5526    0.0000 Br  0  0  0  0  0  0  0  0  0  0  0  0
    0.2258   -3.3279    0.0000 N   0  0  0  0  0  0  0  0  0  0  0  0
   -0.1923    1.7392    0.0000 N   0  0  0  0  0  0  0  0  0  0  0  0
   -3.1973   -5.0817    0.0000 N   0  0  0  0  0  0  0  0  0  0  0  0
   -0.3440   -6.0088    0.0000 N   0  0  0  0  0  0  0  0  0  0  0  0
   -0.1923   -0.6879    0.0000 C   0  0  0  0  0  0  0  0  0  0  0  0
   -0.6558   -2.1145    0.0000 C   0  0  0  0  0  0  0  0  0  0  0  0
    1.2342   -0.2243    0.0000 C   0  0  0  0  0  0  0  0  0  0  0  0
   -2.0825   -4.0779    0.0000 C   0  0  0  0  0  0  0  0  0  0  0  0
   -0.6558   -4.5415    0.0000 C   0  0  0  0  0  0  0  0  0  0  0  0
    1.2342    1.2757    0.0000 C   0  0  0  0  0  0  0  0  0  0  0  0
   -2.0825   -2.5779    0.0000 C   0  0  0  0  0  0  0  0  0  0  0  0
   -1.0740    0.5257    0.0000 C   0  0  0  0  0  0  0  0  0  0  0  0
    2.5333   -0.9743    0.0000 C   0  0  0  0  0  0  0  0  0  0  0  0
    2.5333    2.0257    0.0000 C   0  0  0  0  0  0  0  0  0  0  0  0
   -2.8853   -6.5488    0.0000 C   0  0  0  0  0  0  0  0  0  0  0  0
   -1.4587   -7.0125    0.0000 C   0  0  0  0  0  0  0  0  0  0  0  0
    3.8324   -0.2243    0.0000 C   0  0  0  0  0  0  0  0  0  0  0  0
    3.8324    1.2757    0.0000 C   0  0  0  0  0  0  0  0  0  0  0  0
   -0.6558    3.1657    0.0000 C   0  0  0  0  0  0  0  0  0  0  0  0
  1 16  1  0  0  0  0
  2  7  1  0  0  0  0
  2 10  1  0  0  0  0
  3 11  1  0  0  0  0
  3 13  1  0  0  0  0
  3 20  1  0  0  0  0
  4  9  2  0  0  0  0
  4 16  1  0  0  0  0
  5 10  2  0  0  0  0
  5 17  1  0  0  0  0
  6  7  1  0  0  0  0
  6  8  1  0  0  0  0
  6 13  2  0  0  0  0
  7 12  2  0  0  0  0
  8 11  1  0  0  0  0
  8 14  2  0  0  0  0
  9 10  1  0  0  0  0
  9 12  1  0  0  0  0
 11 15  2  0  0  0  0
 14 18  1  0  0  0  0
 15 19  1  0  0  0  0
 16 17  2  0  0  0  0
 18 19  2  0  0  0  0
M  END
> <Value>
5.300000202445418

> <Relation>
<

> <SourceURI>
mol:CHEMBL1978167

$$$$

Generated by Molecular Materials Informatics

 31 34  0  0  0  0  0  0  0  0999 V2000
    0.7929    3.9482    0.0000 S   0  0  0  0  0  0  0  0  0  0  0  0
   -3.5322   -3.3824    0.0000 O   0  0  0  0  0  0  0  0  0  0  0  0
    4.8176    1.9845    0.0000 N   0  0  0  0  0  0  0  0  0  0  0  0
    3.5185   -0.2655    0.0000 N   0  0  0  0  0  0  0  0  0  0  0  0
   -1.0613   -4.1853    0.0000 N   0  0  0  0  0  0  0  0  0  0  0  0
   -2.9920   -5.9236    0.0000 N   0  0  0  0  0  0  0  0  0  0  0  0
    4.8176    9.4845    0.0000 N   0  0  0  0  0  0  0  0  0  0  0  0
    2.2195    1.9845    0.0000 C   0  0  0  0  0  0  0  0  0  0  0  0
    2.2195    3.4845    0.0000 C   0  0  0  0  0  0  0  0  0  0  0  0
    0.7929    1.5211    0.0000 C   0  0  0  0  0  0  0  0  0  0  0  0
    3.5185    1.2345    0.0000 C   0  0  0  0  0  0  0  0  0  0  0  0
    3.5185    4.2345    0.0000 C   0  0  0  0  0  0  0  0  0  0  0  0
    0.3295    0.0945    0.0000 C   0  0  0  0  0  0  0  0  0  0  0  0
   -0.0887    2.7345    0.0000 C   0  0  0  0  0  0  0  0  0  0  0  0
    4.8176    3.4845    0.0000 C   0  0  0  0  0  0  0  0  0  0  0  0
    1.3331   -1.0202    0.0000 C   0  0  0  0  0  0  0  0  0  0  0  0
   -1.1378   -0.2173    0.0000 C   0  0  0  0  0  0  0  0  0  0  0  0
    3.5185    5.7345    0.0000 C   0  0  0  0  0  0  0  0  0  0  0  0
   -0.5976   -2.7587    0.0000 C   0  0  0  0  0  0  0  0  0  0  0  0
    0.8695   -2.4467    0.0000 C   0  0  0  0  0  0  0  0  0  0  0  0
   -1.6015   -1.6440    0.0000 C   0  0  0  0  0  0  0  0  0  0  0  0
    3.5185    7.2345    0.0000 C   0  0  0  0  0  0  0  0  0  0  0  0
   -2.5284   -4.4971    0.0000 C   0  0  0  0  0  0  0  0  0  0  0  0
   -4.4591   -6.2356    0.0000 C   0  0  0  0  0  0  0  0  0  0  0  0
    3.5185    8.7345    0.0000 C   0  0  0  0  0  0  0  0  0  0  0  0
   -4.9227   -7.6622    0.0000 C   0  0  0  0  0  0  0  0  0  0  0  0
   -5.4629   -5.1209    0.0000 C   0  0  0  0  0  0  0  0  0  0  0  0
   -6.3900   -7.9740    0.0000 C   0  0  0  0  0  0  0  0  0  0  0  0
   -7.3936   -6.8593    0.0000 C   0  0  0  0  0  0  0  0  0  0  0  0
   -6.9302   -5.4327    0.0000 C   0  0  0  0  0  0  0  0  0  0  0  0
   -6.8535   -9.4005    0.0000 C   0  0  0  0  0  0  0  0  0  0  0  0
  1  9  1  0  0  0  0
  1 14  1  0  0  0  0
  2 23  2  0  0  0  0
  3 11  1  0  0  0  0
  3 15  2  0  0  0  0
  4 11  1  0  0  0  0
  5 19  1  0  0  0  0
  5 23  1  0  0  0  0
  6 23  1  0  0  0  0
  6 24  1  0  0  0  0
  7 25  1  0  0  0  0
  8  9  1  0  0  0  0
  8 10  1  0  0  0  0
  8 11  2  0  0  0  0
  9 12  2  0  0  0  0
 10 13  1  0  0  0  0
 10 14  2  0  0  0  0
 12 15  1  0  0  0  0
 12 18  1  0  0  0  0
 13 16  2  0  0  0  0
 13 17  1  0  0  0  0
 16 20  1  0  0  0  0
 17 21  2  0  0  0  0
 18 22  3  0  0  0  0
 19 20  2  0  0  0  0
 19 21  1  0  0  0  0
 22 25  1  0  0  0  0
 24 26  2  0  0  0  0
 24 27  1  0  0  0  0
 26 28  1  0  0  0  0
 27 30  2  0  0  0  0
 28 29  2  0  0  0  0
 28 31  1  0  0  0  0
 29 30  1  0  0  0  0
M  END
> <Value>
6.0999990348465305

> <Relation>
=

> <SourceURI>
mol:CHEMBL1965988

$$$$

Generated by Molecular Materials Informatics

 28 31  0  0  0  0  0  0  0  0999 V2000
    2.1781   -2.5512    0.0000 C   0  0  0  0  0  0  0  0  0  0  0  0
    2.1761   -4.0556    0.0000 C   0  0  0  0  0  0  0  0  0  0  0  0
    3.4757   -4.8063    0.0000 C   0  0  0  0  0  0  0  0  0  0  0  0
    3.4725   -1.8009    0.0000 C   0  0  0  0  0  0  0  0  0  0  0  0
    4.7732   -2.5447    0.0000 C   0  0  0  0  0  0  0  0  0  0  0  0
    4.7745   -4.0480    0.0000 C   0  0  0  0  0  0  0  0  0  0  0  0
    6.0750   -4.7952    0.0000 C   0  0  0  0  0  0  0  0  0  0  0  0
    7.3752   -4.0410    0.0000 C   0  0  0  0  0  0  0  0  0  0  0  0
    7.3665   -2.5321    0.0000 C   0  0  0  0  0  0  0  0  0  0  0  0
    6.0648   -1.7916    0.0000 O   0  0  0  0  0  0  0  0  0  0  0  0
    8.6608   -1.7741    0.0000 C   0  0  0  0  0  0  0  0  0  0  0  0
    9.9595   -2.5225    0.0000 C   0  0  0  0  0  0  0  0  0  0  0  0
   11.2532   -1.7660    0.0000 C   0  0  0  0  0  0  0  0  0  0  0  0
   11.2448   -0.2643    0.0000 C   0  0  0  0  0  0  0  0  0  0  0  0
    9.9321    0.4773    0.0000 C   0  0  0  0  0  0  0  0  0  0  0  0
    9.9645   -4.0225    0.0000 Cl  0  0  0  0  0  0  0  0  0  0  0  0
    8.6597   -0.2891    0.0000 C   0  0  0  0  0  0  0  0  0  0  0  0
    3.4792   -6.3063    0.0000 O   0  0  0  0  0  0  0  0  0  0  0  0
    6.0783   -6.2952    0.0000 O   0  0  0  0  0  0  0  0  0  0  0  0
    0.8790   -1.8016    0.0000 O   0  0  0  0  0  0  0  0  0  0  0  0
    3.4679   -0.3009    0.0000 C   0  0  0  0  0  0  0  0  0  0  0  0
    4.7723    0.4446    0.0000 C   0  0  0  0  0  0  0  0  0  0  0  0
    4.7716    1.9380    0.0000 C   0  0  0  0  0  0  0  0  0  0  0  0
    3.4736    2.6911    0.0000 N   0  0  0  0  0  0  0  0  0  0  0  0
    2.1734    1.9395    0.0000 C   0  0  0  0  0  0  0  0  0  0  0  0
    2.1712    0.4348    0.0000 C   0  0  0  0  0  0  0  0  0  0  0  0
    6.0699   -0.3080    0.0000 O   0  0  0  0  0  0  0  0  0  0  0  0
    3.4747    4.1911    0.0000 C   0  0  0  0  0  0  0  0  0  0  0  0
  3  6  2  0  0  0  0
 13 14  2  0  0  0  0
  6  7  1  0  0  0  0
 14 15  1  0  0  0  0
 15 17  2  0  0  0  0
 17 11  1  0  0  0  0
  1  2  2  0  0  0  0
 12 16  1  0  0  0  0
  7  8  1  0  0  0  0
  5  4  2  0  0  0  0
  3 18  1  0  0  0  0
  8  9  2  0  0  0  0
  7 19  2  0  0  0  0
  4  1  1  0  0  0  0
  1 20  1  0  0  0  0
  9 10  1  0  0  0  0
  4 21  1  0  0  0  0
 21 22  1  0  0  0  0
 10  5  1  0  0  0  0
  9 11  1  0  0  0  0
  2  3  1  0  0  0  0
 11 12  2  0  0  0  0
 21 26  1  0  0  0  0
 22 23  1  0  0  0  0
 23 24  1  0  0  0  0
 24 25  1  0  0  0  0
 25 26  1  0  0  0  0
  5  6  1  0  0  0  0
 22 27  1  0  0  0  0
 12 13  1  0  0  0  0
 24 28  1  0  0  0  0
M  END
> <Value>
5.499999678657065

> <Relation>
<

> <SourceURI>
mol:CHEMBL422897

$$$$

Generated by Molecular Materials Informatics

 23 26  0  0  0  0  0  0  0  0999 V2000
    4.9525    0.4510    0.0000 N   0  0  0  0  0  0  0  0  0  0  0  0
    2.7354   -0.5361    0.0000 N   0  0  0  0  0  0  0  0  0  0  0  0
    4.2025   -0.8481    0.0000 N   0  0  0  0  0  0  0  0  0  0  0  0
   -2.7452    3.6692    0.0000 N   0  0  0  0  0  0  0  0  0  0  0  0
   -3.6268    2.4555    0.0000 N   0  0  0  0  0  0  0  0  0  0  0  0
   -3.2086   -0.1845    0.0000 N   0  0  0  0  0  0  0  0  0  0  0  0
    2.5785    0.9555    0.0000 C   0  0  0  0  0  0  0  0  0  0  0  0
    1.2796    1.7055    0.0000 C   0  0  0  0  0  0  0  0  0  0  0  0
   -1.3186    1.7055    0.0000 C   0  0  0  0  0  0  0  0  0  0  0  0
    3.9488    1.5657    0.0000 C   0  0  0  0  0  0  0  0  0  0  0  0
   -1.3186    3.2055    0.0000 C   0  0  0  0  0  0  0  0  0  0  0  0
   -0.0195    0.9555    0.0000 C   0  0  0  0  0  0  0  0  0  0  0  0
   -2.7452    1.2421    0.0000 C   0  0  0  0  0  0  0  0  0  0  0  0
    1.2796    3.2055    0.0000 C   0  0  0  0  0  0  0  0  0  0  0  0
   -0.0195    3.9555    0.0000 C   0  0  0  0  0  0  0  0  0  0  0  0
    6.4443    0.6077    0.0000 C   0  0  0  0  0  0  0  0  0  0  0  0
    4.2607    3.0330    0.0000 C   0  0  0  0  0  0  0  0  0  0  0  0
    7.3259   -0.6057    0.0000 C   0  0  0  0  0  0  0  0  0  0  0  0
    8.8178   -0.4490    0.0000 C   0  0  0  0  0  0  0  0  0  0  0  0
    6.7159   -1.9761    0.0000 C   0  0  0  0  0  0  0  0  0  0  0  0
    9.6994   -1.6625    0.0000 C   0  0  0  0  0  0  0  0  0  0  0  0
    7.5976   -3.1895    0.0000 C   0  0  0  0  0  0  0  0  0  0  0  0
    9.0894   -3.0328    0.0000 C   0  0  0  0  0  0  0  0  0  0  0  0
  1  3  1  0  0  0  0
  1 10  1  0  0  0  0
  1 16  1  0  0  0  0
  2  3  2  0  0  0  0
  2  7  1  0  0  0  0
  4  5  1  0  0  0  0
  4 11  1  0  0  0  0
  5 13  2  0  0  0  0
  6 13  1  0  0  0  0
  7  8  1  0  0  0  0
  7 10  2  0  0  0  0
  8 12  1  0  0  0  0
  8 14  2  0  0  0  0
  9 11  1  0  0  0  0
  9 12  2  0  0  0  0
  9 13  1  0  0  0  0
 10 17  1  0  0  0  0
 11 15  2  0  0  0  0
 14 15  1  0  0  0  0
 16 18  1  0  0  0  0
 18 19  2  0  0  0  0
 18 20  1  0  0  0  0
 19 21  1  0  0  0  0
 20 22  2  0  0  0  0
 21 23  2  0  0  0  0
 22 23  1  0  0  0  0
M  END
> <Value>
6.799998134593398

> <Relation>
=

> <SourceURI>
mol:CHEMBL1989646

$$$$

Generated by Molecular Materials Informatics

 21 24  0  0  0  0  0  0  0  0999 V2000
   -2.1755   -2.0594    0.0000 C   0  0  0  0  0  0  0  0  0  0  0  0
   -2.1553   -3.5632    0.0000 C   0  0  0  0  0  0  0  0  0  0  0  0
   -0.8451   -4.2943    0.0000 C   0  0  0  0  0  0  0  0  0  0  0  0
   -0.8927   -1.2899    0.0000 C   0  0  0  0  0  0  0  0  0  0  0  0
    0.4184   -2.0143    0.0000 C   0  0  0  0  0  0  0  0  0  0  0  0
    0.4413   -3.5248    0.0000 C   0  0  0  0  0  0  0  0  0  0  0  0
    1.8850   -3.9698    0.0000 N   0  0  0  0  0  0  0  0  0  0  0  0
    2.7544   -2.7345    0.0000 N   0  0  0  0  0  0  0  0  0  0  0  0
    1.8479   -1.5260    0.0000 C   0  0  0  0  0  0  0  0  0  0  0  0
   -3.4854   -1.3292    0.0000 C   0  0  0  0  0  0  0  0  0  0  0  0
   -3.6573    0.1675    0.0000 C   0  0  0  0  0  0  0  0  0  0  0  0
   -5.1281    0.4577    0.0000 C   0  0  0  0  0  0  0  0  0  0  0  0
   -5.8590   -0.8526    0.0000 N   0  0  0  0  0  0  0  0  0  0  0  0
   -4.8387   -1.9516    0.0000 O   0  0  0  0  0  0  0  0  0  0  0  0
   -5.9082    1.7384    0.0000 C   0  0  0  0  0  0  0  0  0  0  0  0
   -5.1893    3.0545    0.0000 C   0  0  0  0  0  0  0  0  0  0  0  0
   -3.6871    3.0814    0.0000 C   0  0  0  0  0  0  0  0  0  0  0  0
   -2.9684    4.3958    0.0000 C   0  0  0  0  0  0  0  0  0  0  0  0
   -3.7488    5.6784    0.0000 C   0  0  0  0  0  0  0  0  0  0  0  0
   -5.2546    5.6300    0.0000 C   0  0  0  0  0  0  0  0  0  0  0  0
   -5.9677    4.3225    0.0000 C   0  0  0  0  0  0  0  0  0  0  0  0
  1 10  1  0  0  0  0
 10 11  2  0  0  0  0
  5  6  1  0  0  0  0
  2  3  1  0  0  0  0
  3  6  2  0  0  0  0
 11 12  1  0  0  0  0
 12 13  2  0  0  0  0
 13 14  1  0  0  0  0
 14 10  1  0  0  0  0
  1  2  2  0  0  0  0
 12 15  1  0  0  0  0
  5  4  2  0  0  0  0
 15 16  1  0  0  0  0
  6  7  1  0  0  0  0
 16 17  2  0  0  0  0
  7  8  1  0  0  0  0
 17 18  1  0  0  0  0
  8  9  2  0  0  0  0
 18 19  2  0  0  0  0
  9  5  1  0  0  0  0
 19 20  1  0  0  0  0
  4  1  1  0  0  0  0
 20 21  2  0  0  0  0
 21 16  1  0  0  0  0
M  END
> <Value>
6.599997654072044

> <Relation>
=

> <SourceURI>
mol:CHEMBL1682357

$$$$

Generated by Molecular Materials Informatics

 16 18  0  0  0  0  0  0  0  0999 V2000
    1.7056   -0.5901    0.0000 C   0  0  0  0  0  0  0  0  0  0  0  0
    3.0002    0.1525    0.0000 C   0  0  0  0  0  0  0  0  0  0  0  0
    3.0002    1.6525    0.0000 N   0  0  0  0  0  0  0  0  0  0  0  0
    1.7056    2.4099    0.0000 C   0  0  0  0  0  0  0  0  0  0  0  0
    0.4111    0.1525    0.0000 C   0  0  0  0  0  0  0  0  0  0  0  0
    0.4111    1.6606    0.0000 C   0  0  0  0  0  0  0  0  0  0  0  0
   -1.0233    2.1271    0.0000 C   0  0  0  0  0  0  0  0  0  0  0  0
   -1.9101    0.9066    0.0000 C   0  0  0  0  0  0  0  0  0  0  0  0
   -1.0235   -0.3135    0.0000 N   0  0  0  0  0  0  0  0  0  0  0  0
   -3.4023    0.9074    0.0000 C   0  0  0  0  0  0  0  0  0  0  0  0
   -4.1512    2.2094    0.0000 C   0  0  0  0  0  0  0  0  0  0  0  0
   -5.6498    2.2101    0.0000 C   0  0  0  0  0  0  0  0  0  0  0  0
   -6.4012    0.9099    0.0000 N   0  0  0  0  0  0  0  0  0  0  0  0
   -5.6432   -0.3934    0.0000 C   0  0  0  0  0  0  0  0  0  0  0  0
   -4.1470   -0.3876    0.0000 C   0  0  0  0  0  0  0  0  0  0  0  0
    1.7093    3.9099    0.0000 O   0  0  0  0  0  0  0  0  0  0  0  0
  6  7  1  0  0  0  0
  7  8  2  0  0  0  0
  8  9  1  0  0  0  0
  9  5  1  0  0  0  0
  3  4  1  0  0  0  0
  5  6  2  0  0  0  0
 10 11  2  0  0  0  0
 11 12  1  0  0  0  0
  6  4  1  0  0  0  0
 12 13  2  0  0  0  0
  5  1  1  0  0  0  0
 13 14  1  0  0  0  0
  1  2  1  0  0  0  0
 14 15  2  0  0  0  0
 15 10  1  0  0  0  0
  8 10  1  0  0  0  0
  2  3  1  0  0  0  0
  4 16  2  0  0  0  0
M  END
> <Value>
7.199970640755866

> <Relation>
=

> <SourceURI>
mol:CHEMBL225519

$$$$

Generated by Molecular Materials Informatics

 31 34  0  0  0  0  0  0  0  0999 V2000
   -1.8823    3.8555    0.0000 F   0  0  0  0  0  0  0  0  0  0  0  0
   -6.3823    1.2575    0.0000 F   0  0  0  0  0  0  0  0  0  0  0  0
    1.1928  -10.4332    0.0000 O   0  0  0  0  0  0  0  0  0  0  0  0
    1.9259    0.5075    0.0000 N   0  0  0  0  0  0  0  0  0  0  0  0
    0.4993    2.4710    0.0000 N   0  0  0  0  0  0  0  0  0  0  0  0
    1.0395   -2.4974    0.0000 N   0  0  0  0  0  0  0  0  0  0  0  0
    4.5240    2.0075    0.0000 N   0  0  0  0  0  0  0  0  0  0  0  0
   -0.8912   -4.2358    0.0000 N   0  0  0  0  0  0  0  0  0  0  0  0
    1.5797   -5.0387    0.0000 N   0  0  0  0  0  0  0  0  0  0  0  0
    0.4993    0.0439    0.0000 C   0  0  0  0  0  0  0  0  0  0  0  0
   -0.3823    1.2575    0.0000 C   0  0  0  0  0  0  0  0  0  0  0  0
    1.9259    2.0075    0.0000 C   0  0  0  0  0  0  0  0  0  0  0  0
    0.0358   -1.3827    0.0000 C   0  0  0  0  0  0  0  0  0  0  0  0
   -1.8823    1.2575    0.0000 C   0  0  0  0  0  0  0  0  0  0  0  0
    3.2249    2.7575    0.0000 C   0  0  0  0  0  0  0  0  0  0  0  0
    3.2249   -0.2425    0.0000 C   0  0  0  0  0  0  0  0  0  0  0  0
   -2.6323    2.5564    0.0000 C   0  0  0  0  0  0  0  0  0  0  0  0
   -2.6323   -0.0416    0.0000 C   0  0  0  0  0  0  0  0  0  0  0  0
   -1.4314   -1.6945    0.0000 C   0  0  0  0  0  0  0  0  0  0  0  0
    4.5240    0.5075    0.0000 C   0  0  0  0  0  0  0  0  0  0  0  0
    0.5758   -3.9239    0.0000 C   0  0  0  0  0  0  0  0  0  0  0  0
   -4.1323    2.5564    0.0000 C   0  0  0  0  0  0  0  0  0  0  0  0
   -4.1323   -0.0416    0.0000 C   0  0  0  0  0  0  0  0  0  0  0  0
   -4.8823    1.2575    0.0000 C   0  0  0  0  0  0  0  0  0  0  0  0
   -1.8951   -3.1212    0.0000 C   0  0  0  0  0  0  0  0  0  0  0  0
    3.2249    4.2575    0.0000 C   0  0  0  0  0  0  0  0  0  0  0  0
    1.1160   -6.4652    0.0000 C   0  0  0  0  0  0  0  0  0  0  0  0
    2.1198   -7.5799    0.0000 C   0  0  0  0  0  0  0  0  0  0  0  0
    1.6562   -9.0067    0.0000 C   0  0  0  0  0  0  0  0  0  0  0  0
    3.0829   -9.4701    0.0000 C   0  0  0  0  0  0  0  0  0  0  0  0
    0.2297   -8.5430    0.0000 C   0  0  0  0  0  0  0  0  0  0  0  0
  1 17  1  0  0  0  0
  2 24  1  0  0  0  0
  3 29  1  0  0  0  0
  4 10  1  0  0  0  0
  4 12  1  0  0  0  0
  4 16  1  0  0  0  0
  5 11  1  0  0  0  0
  5 12  2  0  0  0  0
  6 13  1  0  0  0  0
  6 21  2  0  0  0  0
  7 15  2  0  0  0  0
  7 20  1  0  0  0  0
  8 21  1  0  0  0  0
  8 25  2  0  0  0  0
  9 21  1  0  0  0  0
  9 27  1  0  0  0  0
 10 11  2  0  0  0  0
 10 13  1  0  0  0  0
 11 14  1  0  0  0  0
 12 15  1  0  0  0  0
 13 19  2  0  0  0  0
 14 17  1  0  0  0  0
 14 18  2  0  0  0  0
 15 26  1  0  0  0  0
 16 20  2  0  0  0  0
 17 22  2  0  0  0  0
 18 23  1  0  0  0  0
 19 25  1  0  0  0  0
 22 24  1  0  0  0  0
 23 24  2  0  0  0  0
 27 28  1  0  0  0  0
 28 29  1  0  0  0  0
 29 30  1  0  0  0  0
 29 31  1  0  0  0  0
M  END
> <Value>
5.899998417198648

> <Relation>
<

> <SourceURI>
mol:CHEMBL1978200

$$$$

Generated by Molecular Materials Informatics

 29 33  0  0  0  0  0  0  0  0999 V2000
   -2.8326   -0.8122    0.0000 C   0  0  0  0  0  0  0  0  0  0  0  0
   -1.3326   -0.8122    0.0000 C   0  0  0  0  0  0  0  0  0  0  0  0
   -3.5826    0.4832    0.0000 C   0  0  0  0  0  0  0  0  0  0  0  0
   -3.5826   -2.1153    0.0000 C   0  0  0  0  0  0  0  0  0  0  0  0
   -5.0826    0.4832    0.0000 C   0  0  0  0  0  0  0  0  0  0  0  0
   -0.4537   -2.0321    0.0000 N   0  0  0  0  0  0  0  0  0  0  0  0
   -5.0826   -2.1153    0.0000 N   0  0  0  0  0  0  0  0  0  0  0  0
   -0.4537    0.3998    0.0000 N   0  0  0  0  0  0  0  0  0  0  0  0
   -5.8326   -0.8122    0.0000 C   0  0  0  0  0  0  0  0  0  0  0  0
    0.9705   -0.0622    0.0000 C   0  0  0  0  0  0  0  0  0  0  0  0
    4.8719    0.6878    0.0000 N   0  0  0  0  0  0  0  0  0  0  0  0
    0.9705   -1.5622    0.0000 C   0  0  0  0  0  0  0  0  0  0  0  0
    2.2736    0.6878    0.0000 C   0  0  0  0  0  0  0  0  0  0  0  0
    3.5690   -0.0622    0.0000 C   0  0  0  0  0  0  0  0  0  0  0  0
    7.4705    2.1878    0.0000 N   0  0  0  0  0  0  0  0  0  0  0  0
   -5.8326    1.7861    0.0000 C   0  0  0  0  0  0  0  0  0  0  0  0
   -2.8326   -3.4108    0.0000 O   0  0  0  0  0  0  0  0  0  0  0  0
   -2.8326    1.7861    0.0000 N   0  0  0  0  0  0  0  0  0  0  0  0
    6.1674   -0.0622    0.0000 C   0  0  0  0  0  0  0  0  0  0  0  0
    4.8719    2.1878    0.0000 C   0  0  0  0  0  0  0  0  0  0  0  0
    2.2736   -2.3122    0.0000 C   0  0  0  0  0  0  0  0  0  0  0  0
    3.5690   -1.5622    0.0000 C   0  0  0  0  0  0  0  0  0  0  0  0
    6.1674    2.9378    0.0000 C   0  0  0  0  0  0  0  0  0  0  0  0
    7.4705    0.6878    0.0000 C   0  0  0  0  0  0  0  0  0  0  0  0
   -5.0826    3.0816    0.0000 F   0  0  0  0  0  0  0  0  0  0  0  0
   -7.3326   -0.8122    0.0000 C   0  0  0  0  0  0  0  0  0  0  0  0
    8.7659    2.9378    0.0000 C   0  0  0  0  0  0  0  0  0  0  0  0
   -8.0826    0.4832    0.0000 C   0  0  0  0  0  0  0  0  0  0  0  0
   -7.3326    1.7861    0.0000 C   0  0  0  0  0  0  0  0  0  0  0  0
  2  1  1  0  0  0  0
  3  1  2  0  0  0  0
  4  1  1  0  0  0  0
  5  3  1  0  0  0  0
  6  2  2  0  0  0  0
  7  4  1  0  0  0  0
  8  2  1  0  0  0  0
  9  5  2  0  0  0  0
 10  8  1  0  0  0  0
 11 14  1  0  0  0  0
 12  6  1  0  0  0  0
 13 10  2  0  0  0  0
 14 13  1  0  0  0  0
 15 23  1  0  0  0  0
 16  5  1  0  0  0  0
 17  4  2  0  0  0  0
 18  3  1  0  0  0  0
 19 11  1  0  0  0  0
 20 11  1  0  0  0  0
 21 12  2  0  0  0  0
 22 21  1  0  0  0  0
 23 20  1  0  0  0  0
 24 19  1  0  0  0  0
 25 16  1  0  0  0  0
 26  9  1  0  0  0  0
 27 15  1  0  0  0  0
 28 29  1  0  0  0  0
 29 16  2  0  0  0  0
 10 12  1  0  0  0  0
  7  9  1  0  0  0  0
 22 14  2  0  0  0  0
 28 26  2  0  0  0  0
 24 15  1  0  0  0  0
M  END
> <Value>
5.59999938302362

> <Relation>
<

> <SourceURI>
mol:CHEMBL522892

$$$$

Generated by Molecular Materials Informatics

 18 20  0  0  0  0  0  0  0  0999 V2000
   -5.9586   -0.3438    0.0000 N   0  0  0  0  0  0  0  0  0  0  0  0
   -5.9606   -1.8460    0.0000 C   0  0  0  0  0  0  0  0  0  0  0  0
   -4.6629   -2.5953    0.0000 N   0  0  0  0  0  0  0  0  0  0  0  0
   -4.6662    0.4055    0.0000 C   0  0  0  0  0  0  0  0  0  0  0  0
   -3.3656   -1.8374    0.0000 C   0  0  0  0  0  0  0  0  0  0  0  0
   -3.3674   -0.3373    0.0000 C   0  0  0  0  0  0  0  0  0  0  0  0
   -2.1908    0.6102    0.0000 N   0  0  0  0  0  0  0  0  0  0  0  0
   -2.1810   -2.7749    0.0000 N   0  0  0  0  0  0  0  0  0  0  0  0
   -0.7210    0.2876    0.0000 C   0  0  0  0  0  0  0  0  0  0  0  0
   -0.7108   -2.4319    0.0000 C   0  0  0  0  0  0  0  0  0  0  0  0
   -0.0663   -1.0676    0.0000 C   0  0  0  0  0  0  0  0  0  0  0  0
    0.2061    1.4626    0.0000 C   0  0  0  0  0  0  0  0  0  0  0  0
    1.6899    1.2437    0.0000 C   0  0  0  0  0  0  0  0  0  0  0  0
    2.6177    2.4177    0.0000 C   0  0  0  0  0  0  0  0  0  0  0  0
    2.0639    3.8111    0.0000 C   0  0  0  0  0  0  0  0  0  0  0  0
    0.5736    4.0234    0.0000 C   0  0  0  0  0  0  0  0  0  0  0  0
   -0.3477    2.8475    0.0000 C   0  0  0  0  0  0  0  0  0  0  0  0
   -4.6708    1.9033    0.0000 N   0  0  0  0  0  0  0  0  0  0  0  0
  7  9  2  0  0  0  0
  4  1  1  0  0  0  0
  8 10  1  0  0  0  0
  9 11  1  0  0  0  0
 10 11  1  0  0  0  0
  2  3  1  0  0  0  0
  5  6  1  0  0  0  0
 12 13  2  0  0  0  0
  3  5  2  0  0  0  0
 13 14  1  0  0  0  0
  6  7  1  0  0  0  0
 14 15  2  0  0  0  0
  1  2  2  0  0  0  0
 15 16  1  0  0  0  0
  5  8  1  0  0  0  0
 16 17  2  0  0  0  0
 17 12  1  0  0  0  0
  9 12  1  0  0  0  0
  6  4  2  0  0  0  0
  4 18  1  0  0  0  0
M  END
> <Value>
5.100000128334196

> <Relation>
=

> <SourceURI>
mol:CHEMBL262623

$$$$

Generated by Molecular Materials Informatics

 34 37  0  0  0  0  0  0  0  0999 V2000
   -6.1930   -0.2102    0.0000 F   0  0  0  0  0  0  0  0  0  0  0  0
    3.4143    2.7898    0.0000 O   0  0  0  0  0  0  0  0  0  0  0  0
   -7.0345   -8.3777    0.0000 O   0  0  0  0  0  0  0  0  0  0  0  0
    2.1152   -0.9602    0.0000 N   0  0  0  0  0  0  0  0  0  0  0  0
    0.6886    1.0032    0.0000 N   0  0  0  0  0  0  0  0  0  0  0  0
   -1.2421   -3.1622    0.0000 N   0  0  0  0  0  0  0  0  0  0  0  0
    4.7134    0.5398    0.0000 N   0  0  0  0  0  0  0  0  0  0  0  0
   -0.7019   -5.7035    0.0000 N   0  0  0  0  0  0  0  0  0  0  0  0
   -3.1728   -4.9008    0.0000 N   0  0  0  0  0  0  0  0  0  0  0  0
    0.6886   -1.4239    0.0000 C   0  0  0  0  0  0  0  0  0  0  0  0
   -0.1930   -0.2102    0.0000 C   0  0  0  0  0  0  0  0  0  0  0  0
    2.1152    0.5398    0.0000 C   0  0  0  0  0  0  0  0  0  0  0  0
    0.2252   -2.8504    0.0000 C   0  0  0  0  0  0  0  0  0  0  0  0
    3.4143    1.2898    0.0000 C   0  0  0  0  0  0  0  0  0  0  0  0
   -1.6930   -0.2102    0.0000 C   0  0  0  0  0  0  0  0  0  0  0  0
    3.4143   -1.7102    0.0000 C   0  0  0  0  0  0  0  0  0  0  0  0
    1.2288   -3.9651    0.0000 C   0  0  0  0  0  0  0  0  0  0  0  0
    4.7134   -0.9602    0.0000 C   0  0  0  0  0  0  0  0  0  0  0  0
   -2.4430   -1.5093    0.0000 C   0  0  0  0  0  0  0  0  0  0  0  0
   -2.4430    1.0887    0.0000 C   0  0  0  0  0  0  0  0  0  0  0  0
   -1.7057   -4.5890    0.0000 C   0  0  0  0  0  0  0  0  0  0  0  0
    0.7652   -5.3917    0.0000 C   0  0  0  0  0  0  0  0  0  0  0  0
   -3.9430   -1.5093    0.0000 C   0  0  0  0  0  0  0  0  0  0  0  0
   -3.9430    1.0887    0.0000 C   0  0  0  0  0  0  0  0  0  0  0  0
   -4.6930   -0.2102    0.0000 C   0  0  0  0  0  0  0  0  0  0  0  0
    2.1152    3.5398    0.0000 C   0  0  0  0  0  0  0  0  0  0  0  0
   -3.6365   -6.3273    0.0000 C   0  0  0  0  0  0  0  0  0  0  0  0
    2.1152    5.0398    0.0000 C   0  0  0  0  0  0  0  0  0  0  0  0
   -5.1036   -6.6391    0.0000 C   0  0  0  0  0  0  0  0  0  0  0  0
   -6.5708   -6.9511    0.0000 C   0  0  0  0  0  0  0  0  0  0  0  0
   -4.7917   -8.1064    0.0000 C   0  0  0  0  0  0  0  0  0  0  0  0
   -5.4156   -5.1720    0.0000 C   0  0  0  0  0  0  0  0  0  0  0  0
    0.8161    5.7898    0.0000 C   0  0  0  0  0  0  0  0  0  0  0  0
    3.4143    5.7898    0.0000 C   0  0  0  0  0  0  0  0  0  0  0  0
  1 25  1  0  0  0  0
  2 14  1  0  0  0  0
  2 26  1  0  0  0  0
  3 30  1  0  0  0  0
  4 10  1  0  0  0  0
  4 12  1  0  0  0  0
  4 16  1  0  0  0  0
  5 11  1  0  0  0  0
  5 12  2  0  0  0  0
  6 13  1  0  0  0  0
  6 21  2  0  0  0  0
  7 14  2  0  0  0  0
  7 18  1  0  0  0  0
  8 21  1  0  0  0  0
  8 22  2  0  0  0  0
  9 21  1  0  0  0  0
  9 27  1  0  0  0  0
 10 11  2  0  0  0  0
 10 13  1  0  0  0  0
 11 15  1  0  0  0  0
 12 14  1  0  0  0  0
 13 17  2  0  0  0  0
 15 19  2  0  0  0  0
 15 20  1  0  0  0  0
 16 18  2  0  0  0  0
 17 22  1  0  0  0  0
 19 23  1  0  0  0  0
 20 24  2  0  0  0  0
 23 25  2  0  0  0  0
 24 25  1  0  0  0  0
 26 28  1  0  0  0  0
 27 29  1  0  0  0  0
 28 33  1  0  0  0  0
 28 34  1  0  0  0  0
 29 30  1  0  0  0  0
 29 31  1  0  0  0  0
 29 32  1  0  0  0  0
M  END
> <Value>
5.59999938302362

> <Relation>
<

> <SourceURI>
mol:CHEMBL1984842

$$$$

Generated by Molecular Materials Informatics

 32 36  0  0  0  0  0  0  0  0999 V2000
    0.7929    4.2725    0.0000 S   0  0  0  0  0  0  0  0  0  0  0  0
   -3.5322   -3.0580    0.0000 O   0  0  0  0  0  0  0  0  0  0  0  0
    4.8176    2.3089    0.0000 N   0  0  0  0  0  0  0  0  0  0  0  0
    3.5185    0.0589    0.0000 N   0  0  0  0  0  0  0  0  0  0  0  0
    2.7685    8.3673    0.0000 N   0  0  0  0  0  0  0  0  0  0  0  0
    4.2685    8.3673    0.0000 N   0  0  0  0  0  0  0  0  0  0  0  0
   -1.0613   -3.8609    0.0000 N   0  0  0  0  0  0  0  0  0  0  0  0
   -2.9920   -5.5993    0.0000 N   0  0  0  0  0  0  0  0  0  0  0  0
    2.2195    2.3089    0.0000 C   0  0  0  0  0  0  0  0  0  0  0  0
    2.2195    3.8089    0.0000 C   0  0  0  0  0  0  0  0  0  0  0  0
    0.7929    1.8455    0.0000 C   0  0  0  0  0  0  0  0  0  0  0  0
    3.5185    4.5589    0.0000 C   0  0  0  0  0  0  0  0  0  0  0  0
    3.5185    1.5589    0.0000 C   0  0  0  0  0  0  0  0  0  0  0  0
    0.3295    0.4189    0.0000 C   0  0  0  0  0  0  0  0  0  0  0  0
   -0.0887    3.0589    0.0000 C   0  0  0  0  0  0  0  0  0  0  0  0
    3.5185    6.0589    0.0000 C   0  0  0  0  0  0  0  0  0  0  0  0
    4.8176    3.8089    0.0000 C   0  0  0  0  0  0  0  0  0  0  0  0
    1.3331   -0.6958    0.0000 C   0  0  0  0  0  0  0  0  0  0  0  0
   -1.1378    0.1071    0.0000 C   0  0  0  0  0  0  0  0  0  0  0  0
    2.3049    6.9407    0.0000 C   0  0  0  0  0  0  0  0  0  0  0  0
    4.7320    6.9407    0.0000 C   0  0  0  0  0  0  0  0  0  0  0  0
   -0.5976   -2.4344    0.0000 C   0  0  0  0  0  0  0  0  0  0  0  0
    0.8695   -2.1224    0.0000 C   0  0  0  0  0  0  0  0  0  0  0  0
   -1.6015   -1.3196    0.0000 C   0  0  0  0  0  0  0  0  0  0  0  0
   -2.5284   -4.1727    0.0000 C   0  0  0  0  0  0  0  0  0  0  0  0
   -4.4591   -5.9113    0.0000 C   0  0  0  0  0  0  0  0  0  0  0  0
   -4.9227   -7.3378    0.0000 C   0  0  0  0  0  0  0  0  0  0  0  0
   -5.4629   -4.7965    0.0000 C   0  0  0  0  0  0  0  0  0  0  0  0
   -6.3900   -7.6496    0.0000 C   0  0  0  0  0  0  0  0  0  0  0  0
   -6.9302   -5.1084    0.0000 C   0  0  0  0  0  0  0  0  0  0  0  0
   -7.3936   -6.5349    0.0000 C   0  0  0  0  0  0  0  0  0  0  0  0
   -6.8535   -9.0762    0.0000 C   0  0  0  0  0  0  0  0  0  0  0  0
  1 10  1  0  0  0  0
  1 15  1  0  0  0  0
  2 25  2  0  0  0  0
  3 13  1  0  0  0  0
  3 17  2  0  0  0  0
  4 13  1  0  0  0  0
  5  6  1  0  0  0  0
  5 20  2  0  0  0  0
  6 21  1  0  0  0  0
  7 22  1  0  0  0  0
  7 25  1  0  0  0  0
  8 25  1  0  0  0  0
  8 26  1  0  0  0  0
  9 10  1  0  0  0  0
  9 11  1  0  0  0  0
  9 13  2  0  0  0  0
 10 12  2  0  0  0  0
 11 14  1  0  0  0  0
 11 15  2  0  0  0  0
 12 16  1  0  0  0  0
 12 17  1  0  0  0  0
 14 18  2  0  0  0  0
 14 19  1  0  0  0  0
 16 20  1  0  0  0  0
 16 21  2  0  0  0  0
 18 23  1  0  0  0  0
 19 24  2  0  0  0  0
 22 23  2  0  0  0  0
 22 24  1  0  0  0  0
 26 27  2  0  0  0  0
 26 28  1  0  0  0  0
 27 29  1  0  0  0  0
 28 30  2  0  0  0  0
 29 31  2  0  0  0  0
 29 32  1  0  0  0  0
 30 31  1  0  0  0  0
M  END
> <Value>
6.0

> <Relation>
=

> <SourceURI>
mol:CHEMBL1969102

$$$$

Generated by Molecular Materials Informatics

 25 28  0  0  0  0  0  0  0  0999 V2000
    6.9821   -1.5938    0.0000 Cl  0  0  0  0  0  0  0  0  0  0  0  0
    9.5801    2.9062    0.0000 O   0  0  0  0  0  0  0  0  0  0  0  0
   -0.8121   -1.5938    0.0000 N   0  0  0  0  0  0  0  0  0  0  0  0
    0.4868    0.6562    0.0000 N   0  0  0  0  0  0  0  0  0  0  0  0
    1.7859   -1.5938    0.0000 N   0  0  0  0  0  0  0  0  0  0  0  0
    6.9821    1.4062    0.0000 N   0  0  0  0  0  0  0  0  0  0  0  0
   -3.5377   -1.3072    0.0000 N   0  0  0  0  0  0  0  0  0  0  0  0
   -2.1112    0.6562    0.0000 C   0  0  0  0  0  0  0  0  0  0  0  0
   -2.1112   -0.8437    0.0000 C   0  0  0  0  0  0  0  0  0  0  0  0
   -0.8121    1.4062    0.0000 C   0  0  0  0  0  0  0  0  0  0  0  0
    0.4868   -0.8437    0.0000 C   0  0  0  0  0  0  0  0  0  0  0  0
    5.6830    0.6562    0.0000 C   0  0  0  0  0  0  0  0  0  0  0  0
    3.0850   -0.8437    0.0000 C   0  0  0  0  0  0  0  0  0  0  0  0
    5.6830   -0.8437    0.0000 C   0  0  0  0  0  0  0  0  0  0  0  0
   -3.5377    1.1197    0.0000 C   0  0  0  0  0  0  0  0  0  0  0  0
    4.3841   -1.5938    0.0000 C   0  0  0  0  0  0  0  0  0  0  0  0
    4.3841    1.4062    0.0000 C   0  0  0  0  0  0  0  0  0  0  0  0
    3.0850    0.6562    0.0000 C   0  0  0  0  0  0  0  0  0  0  0  0
   -4.4194   -0.0937    0.0000 C   0  0  0  0  0  0  0  0  0  0  0  0
   -0.8121    2.9062    0.0000 C   0  0  0  0  0  0  0  0  0  0  0  0
    8.2812    0.6562    0.0000 C   0  0  0  0  0  0  0  0  0  0  0  0
    6.9821    2.9062    0.0000 C   0  0  0  0  0  0  0  0  0  0  0  0
    9.5801    1.4062    0.0000 C   0  0  0  0  0  0  0  0  0  0  0  0
    8.2812    3.6562    0.0000 C   0  0  0  0  0  0  0  0  0  0  0  0
   -2.1112    3.6562    0.0000 C   0  0  0  0  0  0  0  0  0  0  0  0
  1 14  1  0  0  0  0
  2 23  1  0  0  0  0
  2 24  1  0  0  0  0
  3  9  1  0  0  0  0
  3 11  2  0  0  0  0
  4 10  2  0  0  0  0
  4 11  1  0  0  0  0
  5 11  1  0  0  0  0
  5 13  1  0  0  0  0
  6 12  1  0  0  0  0
  6 21  1  0  0  0  0
  6 22  1  0  0  0  0
  7  9  1  0  0  0  0
  7 19  1  0  0  0  0
  8  9  2  0  0  0  0
  8 10  1  0  0  0  0
  8 15  1  0  0  0  0
 10 20  1  0  0  0  0
 12 14  1  0  0  0  0
 12 17  2  0  0  0  0
 13 16  1  0  0  0  0
 13 18  2  0  0  0  0
 14 16  2  0  0  0  0
 15 19  2  0  0  0  0
 17 18  1  0  0  0  0
 20 25  1  0  0  0  0
 21 23  1  0  0  0  0
 22 24  1  0  0  0  0
M  END
> <Value>
5.800000874803203

> <Relation>
=

> <SourceURI>
mol:CHEMBL2004118

$$$$

Generated by Molecular Materials Informatics

 22 25  0  0  0  0  0  0  0  0999 V2000
   15.5672  -13.6936    0.0000 C   0  0  0  0  0  0  0  0  0  0  0  0
   15.5650  -15.1980    0.0000 C   0  0  0  0  0  0  0  0  0  0  0  0
   16.8648  -15.9485    0.0000 C   0  0  0  0  0  0  0  0  0  0  0  0
   16.8615  -12.9431    0.0000 C   0  0  0  0  0  0  0  0  0  0  0  0
   18.1620  -13.6871    0.0000 C   0  0  0  0  0  0  0  0  0  0  0  0
   18.1626  -15.1980    0.0000 C   0  0  0  0  0  0  0  0  0  0  0  0
   19.5998  -15.6645    0.0000 N   0  0  0  0  0  0  0  0  0  0  0  0
   20.4876  -14.4418    0.0000 N   0  0  0  0  0  0  0  0  0  0  0  0
   19.5989  -13.2198    0.0000 C   0  0  0  0  0  0  0  0  0  0  0  0
   14.2679  -12.9440    0.0000 C   0  0  0  0  0  0  0  0  0  0  0  0
   14.1106  -11.4537    0.0000 C   0  0  0  0  0  0  0  0  0  0  0  0
   12.6436  -11.1415    0.0000 N   0  0  0  0  0  0  0  0  0  0  0  0
   11.8938  -12.4415    0.0000 N   0  0  0  0  0  0  0  0  0  0  0  0
   12.8978  -13.5556    0.0000 N   0  0  0  0  0  0  0  0  0  0  0  0
   11.8887   -9.8453    0.0000 C   0  0  0  0  0  0  0  0  0  0  0  0
   12.6336   -8.5435    0.0000 C   0  0  0  0  0  0  0  0  0  0  0  0
   14.1348   -8.5464    0.0000 C   0  0  0  0  0  0  0  0  0  0  0  0
   14.8797   -7.2461    0.0000 C   0  0  0  0  0  0  0  0  0  0  0  0
   14.1246   -5.9483    0.0000 C   0  0  0  0  0  0  0  0  0  0  0  0
   12.6168   -5.9588    0.0000 C   0  0  0  0  0  0  0  0  0  0  0  0
   11.8789   -7.2601    0.0000 C   0  0  0  0  0  0  0  0  0  0  0  0
   20.0620  -11.7931    0.0000 N   0  0  0  0  0  0  0  0  0  0  0  0
 10 11  2  0  0  0  0
  5  6  1  0  0  0  0
  2  3  1  0  0  0  0
  3  6  2  0  0  0  0
 11 12  1  0  0  0  0
 12 13  1  0  0  0  0
 13 14  2  0  0  0  0
 14 10  1  0  0  0  0
  1  2  2  0  0  0  0
 12 15  1  0  0  0  0
  5  4  2  0  0  0  0
 15 16  1  0  0  0  0
  6  7  1  0  0  0  0
 16 17  2  0  0  0  0
  7  8  1  0  0  0  0
 17 18  1  0  0  0  0
  8  9  2  0  0  0  0
 18 19  2  0  0  0  0
  9  5  1  0  0  0  0
 19 20  1  0  0  0  0
  4  1  1  0  0  0  0
 20 21  2  0  0  0  0
 21 16  1  0  0  0  0
  1 10  1  0  0  0  0
  9 22  1  0  0  0  0
M  END
> <Value>
6.599997654072044

> <Relation>
=

> <SourceURI>
mol:CHEMBL1682346

$$$$

Generated by Molecular Materials Informatics

 33 36  0  0  0  0  0  0  0  0999 V2000
    2.4357   -1.2562    0.0000 S   0  0  0  0  0  0  0  0  0  0  0  0
    1.1366   11.4937    0.0000 F   0  0  0  0  0  0  0  0  0  0  0  0
    0.9357   -1.2562    0.0000 O   0  0  0  0  0  0  0  0  0  0  0  0
    3.9357   -1.2562    0.0000 O   0  0  0  0  0  0  0  0  0  0  0  0
   -0.1623    0.2438    0.0000 O   0  0  0  0  0  0  0  0  0  0  0  0
    2.4357    0.2438    0.0000 N   0  0  0  0  0  0  0  0  0  0  0  0
    2.4357   -7.2563    0.0000 N   0  0  0  0  0  0  0  0  0  0  0  0
    5.0338   -5.7562    0.0000 N   0  0  0  0  0  0  0  0  0  0  0  0
    2.4357   -2.7562    0.0000 C   0  0  0  0  0  0  0  0  0  0  0  0
    3.7347   -3.5062    0.0000 C   0  0  0  0  0  0  0  0  0  0  0  0
    3.7347   -5.0062    0.0000 C   0  0  0  0  0  0  0  0  0  0  0  0
    2.4357   -5.7562    0.0000 C   0  0  0  0  0  0  0  0  0  0  0  0
    1.1366    0.9938    0.0000 C   0  0  0  0  0  0  0  0  0  0  0  0
    1.1366   -3.5062    0.0000 C   0  0  0  0  0  0  0  0  0  0  0  0
    1.1366    2.4938    0.0000 C   0  0  0  0  0  0  0  0  0  0  0  0
    1.1366   -5.0062    0.0000 C   0  0  0  0  0  0  0  0  0  0  0  0
    1.1366    5.4937    0.0000 C   0  0  0  0  0  0  0  0  0  0  0  0
   -0.1623    3.2438    0.0000 C   0  0  0  0  0  0  0  0  0  0  0  0
    2.4357    3.2438    0.0000 C   0  0  0  0  0  0  0  0  0  0  0  0
    1.1366    6.9937    0.0000 C   0  0  0  0  0  0  0  0  0  0  0  0
   -0.1623    4.7437    0.0000 C   0  0  0  0  0  0  0  0  0  0  0  0
    2.4357    4.7437    0.0000 C   0  0  0  0  0  0  0  0  0  0  0  0
    1.1366   -8.0062    0.0000 C   0  0  0  0  0  0  0  0  0  0  0  0
   -0.1623    7.7437    0.0000 C   0  0  0  0  0  0  0  0  0  0  0  0
    2.4357    7.7437    0.0000 C   0  0  0  0  0  0  0  0  0  0  0  0
    1.1366    9.9937    0.0000 C   0  0  0  0  0  0  0  0  0  0  0  0
   -0.1623    9.2438    0.0000 C   0  0  0  0  0  0  0  0  0  0  0  0
    2.4357    9.2438    0.0000 C   0  0  0  0  0  0  0  0  0  0  0  0
    1.1366   -9.5062    0.0000 C   0  0  0  0  0  0  0  0  0  0  0  0
   -0.1623   -7.2563    0.0000 C   0  0  0  0  0  0  0  0  0  0  0  0
   -0.1623  -10.2562    0.0000 C   0  0  0  0  0  0  0  0  0  0  0  0
   -1.4614   -8.0062    0.0000 C   0  0  0  0  0  0  0  0  0  0  0  0
   -1.4614   -9.5062    0.0000 C   0  0  0  0  0  0  0  0  0  0  0  0
  1  3  2  0  0  0  0
  1  4  2  0  0  0  0
  1  6  1  0  0  0  0
  1  9  1  0  0  0  0
  2 26  1  0  0  0  0
  5 13  2  0  0  0  0
  6 13  1  0  0  0  0
  7 12  1  0  0  0  0
  7 23  1  0  0  0  0
  8 11  1  0  0  0  0
  9 10  1  0  0  0  0
  9 14  2  0  0  0  0
 10 11  2  0  0  0  0
 11 12  1  0  0  0  0
 12 16  2  0  0  0  0
 13 15  1  0  0  0  0
 14 16  1  0  0  0  0
 15 18  2  0  0  0  0
 15 19  1  0  0  0  0
 17 20  1  0  0  0  0
 17 21  2  0  0  0  0
 17 22  1  0  0  0  0
 18 21  1  0  0  0  0
 19 22  2  0  0  0  0
 20 24  2  0  0  0  0
 20 25  1  0  0  0  0
 23 29  1  0  0  0  0
 23 30  1  0  0  0  0
 24 27  1  0  0  0  0
 25 28  2  0  0  0  0
 26 27  2  0  0  0  0
 26 28  1  0  0  0  0
 29 31  1  0  0  0  0
 30 32  1  0  0  0  0
 31 33  1  0  0  0  0
 32 33  1  0  0  0  0
M  END
> <Value>
5.300000202445418

> <Relation>
<

> <SourceURI>
mol:CHEMBL1996795

$$$$

Generated by Molecular Materials Informatics

 28 31  0  0  0  0  0  0  0  0999 V2000
    4.5492    2.1077    0.0000 N   0  0  0  0  0  0  0  0  0  0  0  0
    5.7799    1.2501    0.0000 N   0  0  0  0  0  0  0  0  0  0  0  0
    6.5724   -3.9594    0.0000 N   0  0  0  0  0  0  0  0  0  0  0  0
   -5.1699    4.8701    0.0000 N   0  0  0  0  0  0  0  0  0  0  0  0
    9.8717   -6.1650    0.0000 N   0  0  0  0  0  0  0  0  0  0  0  0
    3.8448   -0.2150    0.0000 C   0  0  0  0  0  0  0  0  0  0  0  0
    3.3532    1.2023    0.0000 C   0  0  0  0  0  0  0  0  0  0  0  0
    1.8535    1.1726    0.0000 C   0  0  0  0  0  0  0  0  0  0  0  0
    5.3444   -0.1854    0.0000 C   0  0  0  0  0  0  0  0  0  0  0  0
    1.4182   -0.2628    0.0000 C   0  0  0  0  0  0  0  0  0  0  0  0
    2.6490   -1.1205    0.0000 C   0  0  0  0  0  0  0  0  0  0  0  0
    6.2499   -1.3814    0.0000 C   0  0  0  0  0  0  0  0  0  0  0  0
    0.8281    2.2674    0.0000 C   0  0  0  0  0  0  0  0  0  0  0  0
   -0.0427   -0.6036    0.0000 C   0  0  0  0  0  0  0  0  0  0  0  0
   -0.6327    1.9266    0.0000 C   0  0  0  0  0  0  0  0  0  0  0  0
   -1.0681    0.4912    0.0000 C   0  0  0  0  0  0  0  0  0  0  0  0
    5.6670   -2.7634    0.0000 C   0  0  0  0  0  0  0  0  0  0  0  0
    7.7383   -1.1952    0.0000 C   0  0  0  0  0  0  0  0  0  0  0  0
   -1.6583    3.0214    0.0000 C   0  0  0  0  0  0  0  0  0  0  0  0
    8.6437   -2.3910    0.0000 C   0  0  0  0  0  0  0  0  0  0  0  0
    8.0608   -3.7732    0.0000 C   0  0  0  0  0  0  0  0  0  0  0  0
   -2.6838    4.1161    0.0000 C   0  0  0  0  0  0  0  0  0  0  0  0
    8.9663   -4.9690    0.0000 C   0  0  0  0  0  0  0  0  0  0  0  0
   -3.7092    5.2108    0.0000 C   0  0  0  0  0  0  0  0  0  0  0  0
   -6.1954    5.9648    0.0000 C   0  0  0  0  0  0  0  0  0  0  0  0
   -5.6052    3.4346    0.0000 C   0  0  0  0  0  0  0  0  0  0  0  0
   -7.6563    5.6241    0.0000 C   0  0  0  0  0  0  0  0  0  0  0  0
   -7.0661    3.0939    0.0000 C   0  0  0  0  0  0  0  0  0  0  0  0
  1  2  1  0  0  0  0
  1  7  1  0  0  0  0
  2  9  2  0  0  0  0
  3 17  2  0  0  0  0
  3 21  1  0  0  0  0
  4 24  1  0  0  0  0
  4 25  1  0  0  0  0
  4 26  1  0  0  0  0
  5 23  3  0  0  0  0
  6  7  2  0  0  0  0
  6  9  1  0  0  0  0
  6 11  1  0  0  0  0
  7  8  1  0  0  0  0
  8 10  1  0  0  0  0
  8 13  2  0  0  0  0
  9 12  1  0  0  0  0
 10 11  1  0  0  0  0
 10 14  2  0  0  0  0
 12 17  1  0  0  0  0
 12 18  2  0  0  0  0
 13 15  1  0  0  0  0
 14 16  1  0  0  0  0
 15 16  2  0  0  0  0
 15 19  1  0  0  0  0
 18 20  1  0  0  0  0
 19 22  3  0  0  0  0
 20 21  2  0  0  0  0
 21 23  1  0  0  0  0
 22 24  1  0  0  0  0
 25 27  1  0  0  0  0
 26 28  1  0  0  0  0
M  END
> <Value>
5.899998417198648

> <Relation>
<

> <SourceURI>
mol:CHEMBL2007044

$$$$

Generated by Molecular Materials Informatics

 34 38  0  0  0  0  0  0  0  0999 V2000
   -1.7214    1.2369    0.0000 O   0  0  0  0  0  0  0  0  0  0  0  0
   -7.4389    9.2405    0.0000 O   0  0  0  0  0  0  0  0  0  0  0  0
    4.4860    0.3232    0.0000 N   0  0  0  0  0  0  0  0  0  0  0  0
    5.7168   -0.5344    0.0000 N   0  0  0  0  0  0  0  0  0  0  0  0
    6.5093   -5.7439    0.0000 N   0  0  0  0  0  0  0  0  0  0  0  0
   -4.9527    8.4865    0.0000 N   0  0  0  0  0  0  0  0  0  0  0  0
   -2.9016    6.2972    0.0000 N   0  0  0  0  0  0  0  0  0  0  0  0
    9.8086   -7.9495    0.0000 N   0  0  0  0  0  0  0  0  0  0  0  0
   -5.5427   11.0167    0.0000 N   0  0  0  0  0  0  0  0  0  0  0  0
    3.7817   -1.9995    0.0000 C   0  0  0  0  0  0  0  0  0  0  0  0
    3.2900   -0.5822    0.0000 C   0  0  0  0  0  0  0  0  0  0  0  0
    1.7904   -0.6119    0.0000 C   0  0  0  0  0  0  0  0  0  0  0  0
    5.2813   -1.9699    0.0000 C   0  0  0  0  0  0  0  0  0  0  0  0
    1.3551   -2.0473    0.0000 C   0  0  0  0  0  0  0  0  0  0  0  0
    2.5859   -2.9050    0.0000 C   0  0  0  0  0  0  0  0  0  0  0  0
    6.1868   -3.1659    0.0000 C   0  0  0  0  0  0  0  0  0  0  0  0
    0.7649    0.4829    0.0000 C   0  0  0  0  0  0  0  0  0  0  0  0
   -0.1058   -2.3881    0.0000 C   0  0  0  0  0  0  0  0  0  0  0  0
   -0.6958    0.1421    0.0000 C   0  0  0  0  0  0  0  0  0  0  0  0
   -1.1312   -1.2933    0.0000 C   0  0  0  0  0  0  0  0  0  0  0  0
    5.6039   -4.5479    0.0000 C   0  0  0  0  0  0  0  0  0  0  0  0
    7.6751   -2.9797    0.0000 C   0  0  0  0  0  0  0  0  0  0  0  0
    8.5806   -4.1755    0.0000 C   0  0  0  0  0  0  0  0  0  0  0  0
    7.9977   -5.5577    0.0000 C   0  0  0  0  0  0  0  0  0  0  0  0
   -1.2860    2.6723    0.0000 C   0  0  0  0  0  0  0  0  0  0  0  0
    8.9031   -6.7535    0.0000 C   0  0  0  0  0  0  0  0  0  0  0  0
   -2.3114    3.7670    0.0000 C   0  0  0  0  0  0  0  0  0  0  0  0
   -1.8762    5.2025    0.0000 C   0  0  0  0  0  0  0  0  0  0  0  0
   -5.9782    9.5812    0.0000 C   0  0  0  0  0  0  0  0  0  0  0  0
   -3.4918    8.8274    0.0000 C   0  0  0  0  0  0  0  0  0  0  0  0
   -5.3880    7.0512    0.0000 C   0  0  0  0  0  0  0  0  0  0  0  0
   -2.4663    7.7327    0.0000 C   0  0  0  0  0  0  0  0  0  0  0  0
   -4.3625    5.9565    0.0000 C   0  0  0  0  0  0  0  0  0  0  0  0
   -6.5683   12.1114    0.0000 C   0  0  0  0  0  0  0  0  0  0  0  0
  1 19  1  0  0  0  0
  1 25  1  0  0  0  0
  2 29  2  0  0  0  0
  3  4  1  0  0  0  0
  3 11  1  0  0  0  0
  4 13  2  0  0  0  0
  5 21  2  0  0  0  0
  5 24  1  0  0  0  0
  6 29  1  0  0  0  0
  6 30  1  0  0  0  0
  6 31  1  0  0  0  0
  7 28  1  0  0  0  0
  7 32  1  0  0  0  0
  7 33  1  0  0  0  0
  8 26  3  0  0  0  0
  9 29  1  0  0  0  0
  9 34  1  0  0  0  0
 10 11  2  0  0  0  0
 10 13  1  0  0  0  0
 10 15  1  0  0  0  0
 11 12  1  0  0  0  0
 12 14  1  0  0  0  0
 12 17  2  0  0  0  0
 13 16  1  0  0  0  0
 14 15  1  0  0  0  0
 14 18  2  0  0  0  0
 16 21  1  0  0  0  0
 16 22  2  0  0  0  0
 17 19  1  0  0  0  0
 18 20  1  0  0  0  0
 19 20  2  0  0  0  0
 22 23  1  0  0  0  0
 23 24  2  0  0  0  0
 24 26  1  0  0  0  0
 25 27  1  0  0  0  0
 27 28  1  0  0  0  0
 30 32  1  0  0  0  0
 31 33  1  0  0  0  0
M  END
> <Value>
5.899998417198648

> <Relation>
<

> <SourceURI>
mol:CHEMBL2001998

$$$$

Generated by Molecular Materials Informatics

 23 25  0  0  0  0  0  0  0  0999 V2000
   -3.6261   -2.2892    0.0000 Br  0  0  0  0  0  0  0  0  0  0  0  0
   -6.6261    2.9069    0.0000 O   0  0  0  0  0  0  0  0  0  0  0  0
   -8.1261    0.3088    0.0000 O   0  0  0  0  0  0  0  0  0  0  0  0
    1.0056   -2.2038    0.0000 N   0  0  0  0  0  0  0  0  0  0  0  0
    1.0056    0.2233    0.0000 N   0  0  0  0  0  0  0  0  0  0  0  0
   -2.8761   -3.5883    0.0000 N   0  0  0  0  0  0  0  0  0  0  0  0
    0.1239   -0.9902    0.0000 C   0  0  0  0  0  0  0  0  0  0  0  0
   -1.3761   -0.9902    0.0000 C   0  0  0  0  0  0  0  0  0  0  0  0
    2.4321   -1.7402    0.0000 C   0  0  0  0  0  0  0  0  0  0  0  0
    2.4321   -0.2402    0.0000 C   0  0  0  0  0  0  0  0  0  0  0  0
   -3.6261    0.3088    0.0000 C   0  0  0  0  0  0  0  0  0  0  0  0
   -2.1261    0.3088    0.0000 C   0  0  0  0  0  0  0  0  0  0  0  0
   -4.3761   -0.9902    0.0000 C   0  0  0  0  0  0  0  0  0  0  0  0
   -5.8761    1.6078    0.0000 C   0  0  0  0  0  0  0  0  0  0  0  0
   -4.3761    1.6078    0.0000 C   0  0  0  0  0  0  0  0  0  0  0  0
   -6.6261    0.3088    0.0000 C   0  0  0  0  0  0  0  0  0  0  0  0
   -5.8761   -0.9902    0.0000 C   0  0  0  0  0  0  0  0  0  0  0  0
    3.7312   -2.4902    0.0000 C   0  0  0  0  0  0  0  0  0  0  0  0
    3.7312    0.5098    0.0000 C   0  0  0  0  0  0  0  0  0  0  0  0
   -2.1261   -2.2892    0.0000 C   0  0  0  0  0  0  0  0  0  0  0  0
    5.0303   -1.7402    0.0000 C   0  0  0  0  0  0  0  0  0  0  0  0
    5.0303   -0.2402    0.0000 C   0  0  0  0  0  0  0  0  0  0  0  0
   -8.1261    2.9069    0.0000 C   0  0  0  0  0  0  0  0  0  0  0  0
  1 13  1  0  0  0  0
  2 14  1  0  0  0  0
  2 23  1  0  0  0  0
  3 16  1  0  0  0  0
  4  7  2  0  0  0  0
  4  9  1  0  0  0  0
  5  7  1  0  0  0  0
  5 10  1  0  0  0  0
  6 20  3  0  0  0  0
  7  8  1  0  0  0  0
  8 12  2  0  0  0  0
  8 20  1  0  0  0  0
  9 10  1  0  0  0  0
  9 18  2  0  0  0  0
 10 19  2  0  0  0  0
 12 11  1  0  0  0  0
 11 13  2  0  0  0  0
 11 15  1  0  0  0  0
 13 17  1  0  0  0  0
 14 15  2  0  0  0  0
 14 16  1  0  0  0  0
 16 17  2  0  0  0  0
 18 21  1  0  0  0  0
 19 22  1  0  0  0  0
 21 22  2  0  0  0  0
M  END
> <Value>
7.79997073344623

> <Relation>
=

> <SourceURI>
mol:CHEMBL1994241

$$$$

Generated by Molecular Materials Informatics

 31 33  0  0  0  0  0  0  0  0999 V2000
   12.3083  -20.0175    0.0000 S   0  0  0  0  0  0  0  0  0  0  0  0
   13.6276  -19.3037    0.0000 N   0  0  0  0  0  0  0  0  0  0  0  0
   16.2178  -26.8176    0.0000 C   0  0  0  0  0  0  0  0  0  0  0  0
   16.2178  -28.3176    0.0000 C   0  0  0  0  0  0  0  0  0  0  0  0
   18.6648  -28.2949    0.0000 C   0  0  0  0  0  0  0  0  0  0  0  0
   18.7254  -26.7418    0.0000 O   0  0  0  0  0  0  0  0  0  0  0  0
   16.2243  -22.3084    0.0000 C   0  0  0  0  0  0  0  0  0  0  0  0
   14.9269  -20.0535    0.0000 C   0  0  0  0  0  0  0  0  0  0  0  0
   14.9247  -21.5577    0.0000 C   0  0  0  0  0  0  0  0  0  0  0  0
   17.5270  -21.5569    0.0000 C   0  0  0  0  0  0  0  0  0  0  0  0
   17.5218  -20.0468    0.0000 C   0  0  0  0  0  0  0  0  0  0  0  0
   16.2210  -19.3029    0.0000 C   0  0  0  0  0  0  0  0  0  0  0  0
   16.2167  -17.8029    0.0000 Cl  0  0  0  0  0  0  0  0  0  0  0  0
   18.8272  -22.3048    0.0000 N   0  0  0  0  0  0  0  0  0  0  0  0
   20.1250  -21.5528    0.0000 C   0  0  0  0  0  0  0  0  0  0  0  0
   21.4159  -22.2964    0.0000 N   0  0  0  0  0  0  0  0  0  0  0  0
   20.1227  -20.0528    0.0000 O   0  0  0  0  0  0  0  0  0  0  0  0
   21.3856  -23.7960    0.0000 C   0  0  0  0  0  0  0  0  0  0  0  0
   20.0399  -26.0146    0.0000 C   0  0  0  0  0  0  0  0  0  0  0  0
   21.3246  -26.7922    0.0000 C   0  0  0  0  0  0  0  0  0  0  0  0
   22.6430  -26.0606    0.0000 N   0  0  0  0  0  0  0  0  0  0  0  0
   22.6674  -24.5647    0.0000 C   0  0  0  0  0  0  0  0  0  0  0  0
   20.1005  -24.5853    0.0000 N   0  0  0  0  0  0  0  0  0  0  0  0
   16.2239  -23.8084    0.0000 O   0  0  0  0  0  0  0  0  0  0  0  0
   14.9243  -26.0580    0.0000 C   0  0  0  0  0  0  0  0  0  0  0  0
   21.3299  -28.2922    0.0000 C   0  0  0  0  0  0  0  0  0  0  0  0
   21.3392  -29.7886    0.0000 N   0  0  0  0  0  0  0  0  0  0  0  0
   14.9279  -24.5535    0.0000 C   0  0  0  0  0  0  0  0  0  0  0  0
   11.0052  -20.7580    0.0000 C   0  0  0  0  0  0  0  0  0  0  0  0
   11.5809  -18.7057    0.0000 O   0  0  0  0  0  0  0  0  0  0  0  0
   13.0347  -21.3298    0.0000 O   0  0  0  0  0  0  0  0  0  0  0  0
  4  5  1  0  0  0  0
 15 17  2  0  0  0  0
  7 10  2  0  0  0  0
 16 18  1  0  0  0  0
 18 23  2  0  0  0  0
  5  6  1  0  0  0  0
 23 19  1  0  0  0  0
 10 11  1  0  0  0  0
 19 20  2  0  0  0  0
  1  2  1  0  0  0  0
 20 21  1  0  0  0  0
 11 12  2  0  0  0  0
 21 22  2  0  0  0  0
 22 18  1  0  0  0  0
 19  6  1  0  0  0  0
 12  8  1  0  0  0  0
  3  4  1  0  0  0  0
  7 24  1  0  0  0  0
 24 28  1  0  0  0  0
 12 13  1  0  0  0  0
 28 25  1  0  0  0  0
 25  3  1  0  0  0  0
 20 26  1  0  0  0  0
 10 14  1  0  0  0  0
 26 27  3  0  0  0  0
  8  9  2  0  0  0  0
  8  2  1  0  0  0  0
 14 15  1  0  0  0  0
  1 29  1  0  0  0  0
  9  7  1  0  0  0  0
  1 30  2  0  0  0  0
 15 16  1  0  0  0  0
  1 31  2  0  0  0  0
M  END
> <Value>
5.899998417198648

> <Relation>
<

> <SourceURI>
mol:CHEMBL223460

$$$$

Generated by Molecular Materials Informatics

 22 25  0  0  0  0  0  0  0  0999 V2000
    3.3875    1.5539    0.0000 N   0  0  0  0  0  0  0  0  0  0  0  0
    2.0301    2.1919    0.0000 C   0  0  0  0  0  0  0  0  0  0  0  0
    0.6848    1.5284    0.0000 C   0  0  0  0  0  0  0  0  0  0  0  0
    2.0161    3.6919    0.0000 O   0  0  0  0  0  0  0  0  0  0  0  0
    2.8108   -1.0868    0.0000 C   0  0  0  0  0  0  0  0  0  0  0  0
    3.7350    0.0946    0.0000 C   0  0  0  0  0  0  0  0  0  0  0  0
    5.2203   -0.1150    0.0000 C   0  0  0  0  0  0  0  0  0  0  0  0
    5.7813   -1.5061    0.0000 C   0  0  0  0  0  0  0  0  0  0  0  0
    4.8572   -2.6876    0.0000 C   0  0  0  0  0  0  0  0  0  0  0  0
    3.3719   -2.4779    0.0000 C   0  0  0  0  0  0  0  0  0  0  0  0
    0.4962   -2.3605    0.0000 N   0  0  0  0  0  0  0  0  0  0  0  0
    0.3648    0.0630    0.0000 C   0  0  0  0  0  0  0  0  0  0  0  0
    1.3110   -1.1008    0.0000 C   0  0  0  0  0  0  0  0  0  0  0  0
   -1.0347   -0.4772    0.0000 C   0  0  0  0  0  0  0  0  0  0  0  0
   -0.9534   -1.9750    0.0000 C   0  0  0  0  0  0  0  0  0  0  0  0
   -2.2098   -2.7943    0.0000 C   0  0  0  0  0  0  0  0  0  0  0  0
   -3.5476   -2.1158    0.0000 C   0  0  0  0  0  0  0  0  0  0  0  0
   -3.6289   -0.6181    0.0000 C   0  0  0  0  0  0  0  0  0  0  0  0
   -2.3725    0.2013    0.0000 C   0  0  0  0  0  0  0  0  0  0  0  0
   -4.9667    0.0604    0.0000 N   0  3  0  0  0  0  0  0  0  0  0  0
   -6.2232   -0.7588    0.0000 O   0  0  0  0  0  0  0  0  0  0  0  0
   -5.0482    1.5583    0.0000 O   0  5  0  0  0  0  0  0  0  0  0  0
  2  1  1  0  0  0  0
  6  1  1  0  0  0  0
  2  3  1  0  0  0  0
  2  4  2  0  0  0  0
 12  3  1  0  0  0  0
  5  6  2  0  0  0  0
 10  5  1  0  0  0  0
 13  5  1  0  0  0  0
  6  7  1  0  0  0  0
  7  8  2  0  0  0  0
  8  9  1  0  0  0  0
 10  9  2  0  0  0  0
 13 11  1  0  0  0  0
 15 11  1  0  0  0  0
 12 13  2  0  0  0  0
 12 14  1  0  0  0  0
 14 15  2  0  0  0  0
 14 19  1  0  0  0  0
 15 16  1  0  0  0  0
 16 17  2  0  0  0  0
 17 18  1  0  0  0  0
 18 19  2  0  0  0  0
 18 20  1  0  0  0  0
 20 21  2  0  0  0  0
 20 22  1  0  0  0  0
M  CHG  2  20   1  22  -1
M  END
> <Value>
5.499999678657065

> <Relation>
<

> <SourceURI>
mol:CHEMBL50894

$$$$

Generated by Molecular Materials Informatics

 20 22  0  0  0  0  0  0  0  0999 V2000
   -1.4437   -1.6994    0.0000 N   0  0  0  0  0  0  0  0  0  0  0  0
    1.2820   -1.9860    0.0000 N   0  0  0  0  0  0  0  0  0  0  0  0
    1.2820    2.5140    0.0000 N   0  0  0  0  0  0  0  0  0  0  0  0
    2.5809    0.2640    0.0000 N   0  0  0  0  0  0  0  0  0  0  0  0
   -0.0171    0.2640    0.0000 C   0  0  0  0  0  0  0  0  0  0  0  0
   -1.4437    0.7275    0.0000 C   0  0  0  0  0  0  0  0  0  0  0  0
   -0.0171   -1.2360    0.0000 C   0  0  0  0  0  0  0  0  0  0  0  0
    1.2820    1.0140    0.0000 C   0  0  0  0  0  0  0  0  0  0  0  0
   -1.9073    2.1542    0.0000 C   0  0  0  0  0  0  0  0  0  0  0  0
   -2.3253   -0.4860    0.0000 C   0  0  0  0  0  0  0  0  0  0  0  0
    2.5809    3.2640    0.0000 C   0  0  0  0  0  0  0  0  0  0  0  0
    2.5809   -1.2360    0.0000 C   0  0  0  0  0  0  0  0  0  0  0  0
   -3.3744    2.4660    0.0000 C   0  0  0  0  0  0  0  0  0  0  0  0
   -0.9035    3.2689    0.0000 C   0  0  0  0  0  0  0  0  0  0  0  0
   -3.8381    3.8926    0.0000 C   0  0  0  0  0  0  0  0  0  0  0  0
   -1.3671    4.6955    0.0000 C   0  0  0  0  0  0  0  0  0  0  0  0
    3.8800    4.0140    0.0000 C   0  0  0  0  0  0  0  0  0  0  0  0
    1.8309    4.5631    0.0000 C   0  0  0  0  0  0  0  0  0  0  0  0
    3.3309    1.9649    0.0000 C   0  0  0  0  0  0  0  0  0  0  0  0
   -2.8342    5.0073    0.0000 C   0  0  0  0  0  0  0  0  0  0  0  0
  1  7  1  0  0  0  0
  1 10  1  0  0  0  0
  2  7  1  0  0  0  0
  2 12  2  0  0  0  0
  3  8  1  0  0  0  0
  3 11  1  0  0  0  0
  4  8  2  0  0  0  0
  4 12  1  0  0  0  0
  5  6  1  0  0  0  0
  5  7  2  0  0  0  0
  5  8  1  0  0  0  0
  6  9  1  0  0  0  0
  6 10  2  0  0  0  0
  9 13  2  0  0  0  0
  9 14  1  0  0  0  0
 11 17  1  0  0  0  0
 11 18  1  0  0  0  0
 11 19  1  0  0  0  0
 13 15  1  0  0  0  0
 14 16  2  0  0  0  0
 15 20  2  0  0  0  0
 16 20  1  0  0  0  0
M  END
> <Value>
5.300000202445418

> <Relation>
<

> <SourceURI>
mol:CHEMBL1995211

$$$$

Generated by Molecular Materials Informatics

 30 32  0  0  0  0  0  0  0  0999 V2000
   -0.7017    5.7750    0.0000 S   0  0  0  0  0  0  0  0  0  0  0  0
   -0.7017    7.2750    0.0000 O   0  0  0  0  0  0  0  0  0  0  0  0
   -2.2017    5.7750    0.0000 O   0  0  0  0  0  0  0  0  0  0  0  0
    4.4945   -9.2250    0.0000 O   0  0  0  0  0  0  0  0  0  0  0  0
    7.0925  -12.2250    0.0000 O   0  0  0  0  0  0  0  0  0  0  0  0
    3.1954   -0.9750    0.0000 N   0  0  0  0  0  0  0  0  0  0  0  0
    1.8963    1.2750    0.0000 N   0  0  0  0  0  0  0  0  0  0  0  0
    4.4945   -3.2250    0.0000 N   0  0  0  0  0  0  0  0  0  0  0  0
    0.5972   -0.9750    0.0000 N   0  0  0  0  0  0  0  0  0  0  0  0
    0.7983    5.7750    0.0000 N   0  0  0  0  0  0  0  0  0  0  0  0
    4.4945  -12.2250    0.0000 N   0  0  0  0  0  0  0  0  0  0  0  0
   -0.7017    4.2750    0.0000 C   0  0  0  0  0  0  0  0  0  0  0  0
    3.1954   -2.4750    0.0000 C   0  0  0  0  0  0  0  0  0  0  0  0
    1.8963   -0.2250    0.0000 C   0  0  0  0  0  0  0  0  0  0  0  0
    0.5972    2.0250    0.0000 C   0  0  0  0  0  0  0  0  0  0  0  0
    0.5972    3.5250    0.0000 C   0  0  0  0  0  0  0  0  0  0  0  0
    1.8963   -3.2250    0.0000 C   0  0  0  0  0  0  0  0  0  0  0  0
    4.4945   -4.7250    0.0000 C   0  0  0  0  0  0  0  0  0  0  0  0
   -2.0008    3.5250    0.0000 C   0  0  0  0  0  0  0  0  0  0  0  0
   -0.7017    1.2750    0.0000 C   0  0  0  0  0  0  0  0  0  0  0  0
    0.5972   -2.4750    0.0000 C   0  0  0  0  0  0  0  0  0  0  0  0
   -2.0008    2.0250    0.0000 C   0  0  0  0  0  0  0  0  0  0  0  0
    5.7934   -5.4750    0.0000 C   0  0  0  0  0  0  0  0  0  0  0  0
    3.1954   -5.4750    0.0000 C   0  0  0  0  0  0  0  0  0  0  0  0
    4.4945   -7.7250    0.0000 C   0  0  0  0  0  0  0  0  0  0  0  0
    5.7934   -6.9750    0.0000 C   0  0  0  0  0  0  0  0  0  0  0  0
    3.1954   -6.9750    0.0000 C   0  0  0  0  0  0  0  0  0  0  0  0
    1.8963   -4.7250    0.0000 C   0  0  0  0  0  0  0  0  0  0  0  0
    5.7934   -9.9750    0.0000 C   0  0  0  0  0  0  0  0  0  0  0  0
    5.7934  -11.4750    0.0000 C   0  0  0  0  0  0  0  0  0  0  0  0
  1  2  2  0  0  0  0
  1  3  2  0  0  0  0
  1 10  1  0  0  0  0
  1 12  1  0  0  0  0
  4 25  1  0  0  0  0
  4 29  1  0  0  0  0
  5 30  2  0  0  0  0
  6 13  2  0  0  0  0
  6 14  1  0  0  0  0
  7 14  1  0  0  0  0
  7 15  1  0  0  0  0
  8 13  1  0  0  0  0
  8 18  1  0  0  0  0
  9 14  2  0  0  0  0
  9 21  1  0  0  0  0
 11 30  1  0  0  0  0
 12 16  2  0  0  0  0
 12 19  1  0  0  0  0
 13 17  1  0  0  0  0
 15 16  1  0  0  0  0
 15 20  2  0  0  0  0
 17 21  2  0  0  0  0
 17 28  1  0  0  0  0
 18 23  2  0  0  0  0
 18 24  1  0  0  0  0
 19 22  2  0  0  0  0
 20 22  1  0  0  0  0
 23 26  1  0  0  0  0
 24 27  2  0  0  0  0
 25 26  2  0  0  0  0
 25 27  1  0  0  0  0
 29 30  1  0  0  0  0
M  END
> <Value>
6.499996931948306

> <Relation>
=

> <SourceURI>
mol:CHEMBL1988838

$$$$

Generated by Molecular Materials Informatics

 46 52  0  0  0  0  0  0  0  0999 V2000
   -8.7073   -0.0805    0.0000 F   0  0  0  0  0  0  0  0  0  0  0  0
   -3.4573   -1.3796    0.0000 O   0  0  0  0  0  0  0  0  0  0  0  0
    2.6009    1.7676    0.0000 N   0  0  0  0  0  0  0  0  0  0  0  0
    1.1743    3.7311    0.0000 N   0  0  0  0  0  0  0  0  0  0  0  0
   -0.7564   -0.4344    0.0000 N   0  0  0  0  0  0  0  0  0  0  0  0
   -0.2162   -2.9756    0.0000 N   0  0  0  0  0  0  0  0  0  0  0  0
   -2.6872   -2.1729    0.0000 N   0  0  0  0  0  0  0  0  0  0  0  0
   -5.7073   -0.0805    0.0000 N   0  0  0  0  0  0  0  0  0  0  0  0
   -4.5413   -7.8793    0.0000 N   0  0  0  0  0  0  0  0  0  0  0  0
   -5.4684  -10.7324    0.0000 N   0  0  0  0  0  0  0  0  0  0  0  0
    1.1743    1.3040    0.0000 C   0  0  0  0  0  0  0  0  0  0  0  0
    0.2927    2.5176    0.0000 C   0  0  0  0  0  0  0  0  0  0  0  0
    2.6009    3.2676    0.0000 C   0  0  0  0  0  0  0  0  0  0  0  0
    0.7109   -0.1225    0.0000 C   0  0  0  0  0  0  0  0  0  0  0  0
   -1.2073    2.5176    0.0000 C   0  0  0  0  0  0  0  0  0  0  0  0
    3.8999    1.0176    0.0000 C   0  0  0  0  0  0  0  0  0  0  0  0
    3.8999    4.0176    0.0000 C   0  0  0  0  0  0  0  0  0  0  0  0
   -1.9573    1.2185    0.0000 C   0  0  0  0  0  0  0  0  0  0  0  0
    1.7145   -1.2373    0.0000 C   0  0  0  0  0  0  0  0  0  0  0  0
   -1.9573    3.8165    0.0000 C   0  0  0  0  0  0  0  0  0  0  0  0
   -3.4573    1.2185    0.0000 C   0  0  0  0  0  0  0  0  0  0  0  0
   -1.2201   -1.8611    0.0000 C   0  0  0  0  0  0  0  0  0  0  0  0
    5.1990    1.7676    0.0000 C   0  0  0  0  0  0  0  0  0  0  0  0
    5.1990    3.2676    0.0000 C   0  0  0  0  0  0  0  0  0  0  0  0
    1.2509   -2.6638    0.0000 C   0  0  0  0  0  0  0  0  0  0  0  0
   -3.4573    3.8165    0.0000 C   0  0  0  0  0  0  0  0  0  0  0  0
   -4.2073    2.5176    0.0000 C   0  0  0  0  0  0  0  0  0  0  0  0
   -4.2073   -0.0805    0.0000 C   0  0  0  0  0  0  0  0  0  0  0  0
   -3.1508   -3.5995    0.0000 C   0  0  0  0  0  0  0  0  0  0  0  0
   -4.0777   -6.4525    0.0000 C   0  0  0  0  0  0  0  0  0  0  0  0
   -6.4573    1.2185    0.0000 C   0  0  0  0  0  0  0  0  0  0  0  0
   -2.1470   -4.7142    0.0000 C   0  0  0  0  0  0  0  0  0  0  0  0
   -4.6179   -3.9113    0.0000 C   0  0  0  0  0  0  0  0  0  0  0  0
   -2.6106   -6.1407    0.0000 C   0  0  0  0  0  0  0  0  0  0  0  0
   -5.0815   -5.3378    0.0000 C   0  0  0  0  0  0  0  0  0  0  0  0
   -7.9573    1.2185    0.0000 C   0  0  0  0  0  0  0  0  0  0  0  0
   -5.7073    2.5176    0.0000 C   0  0  0  0  0  0  0  0  0  0  0  0
   -3.5377   -8.9940    0.0000 C   0  0  0  0  0  0  0  0  0  0  0  0
   -6.0086   -8.1911    0.0000 C   0  0  0  0  0  0  0  0  0  0  0  0
   -8.7073    2.5176    0.0000 C   0  0  0  0  0  0  0  0  0  0  0  0
   -4.0012  -10.4205    0.0000 C   0  0  0  0  0  0  0  0  0  0  0  0
   -6.4721   -9.6176    0.0000 C   0  0  0  0  0  0  0  0  0  0  0  0
   -6.4573    3.8165    0.0000 C   0  0  0  0  0  0  0  0  0  0  0  0
   -7.9573    3.8165    0.0000 C   0  0  0  0  0  0  0  0  0  0  0  0
   -5.9319  -12.1589    0.0000 C   0  0  0  0  0  0  0  0  0  0  0  0
   -4.9282  -13.2736    0.0000 C   0  0  0  0  0  0  0  0  0  0  0  0
  1 36  1  0  0  0  0
  2 28  2  0  0  0  0
  3 11  1  0  0  0  0
  3 13  1  0  0  0  0
  3 16  1  0  0  0  0
  4 12  1  0  0  0  0
  4 13  2  0  0  0  0
  5 14  2  0  0  0  0
  5 22  1  0  0  0  0
  6 22  2  0  0  0  0
  6 25  1  0  0  0  0
  7 22  1  0  0  0  0
  7 29  1  0  0  0  0
  8 28  1  0  0  0  0
  8 31  1  0  0  0  0
  9 30  1  0  0  0  0
  9 38  1  0  0  0  0
  9 39  1  0  0  0  0
 10 41  1  0  0  0  0
 10 42  1  0  0  0  0
 10 45  1  0  0  0  0
 11 12  2  0  0  0  0
 11 14  1  0  0  0  0
 12 15  1  0  0  0  0
 13 17  1  0  0  0  0
 14 19  1  0  0  0  0
 15 18  1  0  0  0  0
 15 20  2  0  0  0  0
 16 23  2  0  0  0  0
 17 24  2  0  0  0  0
 18 21  2  0  0  0  0
 19 25  2  0  0  0  0
 20 26  1  0  0  0  0
 21 27  1  0  0  0  0
 21 28  1  0  0  0  0
 23 24  1  0  0  0  0
 26 27  2  0  0  0  0
 29 32  2  0  0  0  0
 29 33  1  0  0  0  0
 30 34  2  0  0  0  0
 30 35  1  0  0  0  0
 31 36  1  0  0  0  0
 31 37  2  0  0  0  0
 32 34  1  0  0  0  0
 33 35  2  0  0  0  0
 36 40  2  0  0  0  0
 37 43  1  0  0  0  0
 38 41  1  0  0  0  0
 39 42  1  0  0  0  0
 40 44  1  0  0  0  0
 43 44  2  0  0  0  0
 45 46  1  0  0  0  0
M  END
> <Value>
6.900008766455316

> <Relation>
=

> <SourceURI>
mol:CHEMBL1981725

$$$$

Generated by Molecular Materials Informatics

 26 29  0  0  0  0  0  0  0  0999 V2000
   12.0475  -26.4149    0.0000 C   0  0  0  0  0  0  0  0  0  0  0  0
   13.3502  -25.6633    0.0000 C   0  0  0  0  0  0  0  0  0  0  0  0
   13.3449  -24.1535    0.0000 C   0  0  0  0  0  0  0  0  0  0  0  0
   12.0443  -23.4096    0.0000 C   0  0  0  0  0  0  0  0  0  0  0  0
    9.3173  -26.1274    0.0000 N   0  0  0  0  0  0  0  0  0  0  0  0
   10.7481  -25.6642    0.0000 C   0  0  0  0  0  0  0  0  0  0  0  0
   10.7476  -24.1591    0.0000 C   0  0  0  0  0  0  0  0  0  0  0  0
    9.3147  -23.6966    0.0000 C   0  0  0  0  0  0  0  0  0  0  0  0
    8.4347  -24.9178    0.0000 N   0  0  0  0  0  0  0  0  0  0  0  0
   12.0363  -21.9158    0.0000 C   0  0  0  0  0  0  0  0  0  0  0  0
   13.3366  -21.1640    0.0000 C   0  0  0  0  0  0  0  0  0  0  0  0
   13.3339  -19.6655    0.0000 C   0  0  0  0  0  0  0  0  0  0  0  0
   12.0321  -18.9171    0.0000 C   0  0  0  0  0  0  0  0  0  0  0  0
   10.7307  -19.6778    0.0000 C   0  0  0  0  0  0  0  0  0  0  0  0
   10.7400  -21.1740    0.0000 C   0  0  0  0  0  0  0  0  0  0  0  0
   12.0268  -17.4171    0.0000 N   0  0  0  0  0  0  0  0  0  0  0  0
   13.3231  -16.6626    0.0000 C   0  0  0  0  0  0  0  0  0  0  0  0
   13.3177  -15.1626    0.0000 O   0  0  0  0  0  0  0  0  0  0  0  0
   14.6247  -17.4079    0.0000 N   0  0  0  0  0  0  0  0  0  0  0  0
   15.9210  -16.6533    0.0000 C   0  0  0  0  0  0  0  0  0  0  0  0
   17.2206  -17.4053    0.0000 C   0  0  0  0  0  0  0  0  0  0  0  0
   18.5160  -16.6520    0.0000 C   0  0  0  0  0  0  0  0  0  0  0  0
   18.5114  -15.1506    0.0000 C   0  0  0  0  0  0  0  0  0  0  0  0
   17.2006  -14.4055    0.0000 C   0  0  0  0  0  0  0  0  0  0  0  0
   15.9108  -15.1633    0.0000 C   0  0  0  0  0  0  0  0  0  0  0  0
   19.8172  -17.3978    0.0000 C   0  0  0  0  0  0  0  0  0  0  0  0
 12 13  2  0  0  0  0
  2  3  1  0  0  0  0
 13 14  1  0  0  0  0
 14 15  2  0  0  0  0
 15 10  1  0  0  0  0
  4 10  1  0  0  0  0
  3  4  2  0  0  0  0
 13 16  1  0  0  0  0
  5  6  1  0  0  0  0
 16 17  1  0  0  0  0
  7  8  1  0  0  0  0
 17 18  2  0  0  0  0
  8  9  2  0  0  0  0
 17 19  1  0  0  0  0
  9  5  1  0  0  0  0
 19 20  1  0  0  0  0
  4  7  1  0  0  0  0
 20 21  2  0  0  0  0
  6  7  2  0  0  0  0
 21 22  1  0  0  0  0
 10 11  2  0  0  0  0
 22 23  2  0  0  0  0
  1  2  2  0  0  0  0
 23 24  1  0  0  0  0
 11 12  1  0  0  0  0
 24 25  2  0  0  0  0
 25 20  1  0  0  0  0
  6  1  1  0  0  0  0
 22 26  1  0  0  0  0
M  END
> <Value>
5.899998417198648

> <Relation>
<

> <SourceURI>
mol:CHEMBL375284

$$$$

Generated by Molecular Materials Informatics

 24 26  0  0  0  0  0  0  0  0999 V2000
    2.8255    0.6750    0.0000 O   0  0  0  0  0  0  0  0  0  0  0  0
    8.0215    6.6748    0.0000 O   0  0  0  0  0  0  0  0  0  0  0  0
    5.4236    0.6750    0.0000 N   0  0  0  0  0  0  0  0  0  0  0  0
    4.1245   -9.0747    0.0000 N   0  0  0  0  0  0  0  0  0  0  0  0
    4.1245   -4.5749    0.0000 C   0  0  0  0  0  0  0  0  0  0  0  0
    4.1245   -1.5750    0.0000 C   0  0  0  0  0  0  0  0  0  0  0  0
    4.1245   -6.0748    0.0000 C   0  0  0  0  0  0  0  0  0  0  0  0
    4.1245   -0.0750    0.0000 C   0  0  0  0  0  0  0  0  0  0  0  0
    2.8255   -3.8249    0.0000 C   0  0  0  0  0  0  0  0  0  0  0  0
    5.4236   -3.8249    0.0000 C   0  0  0  0  0  0  0  0  0  0  0  0
    2.8255   -2.3250    0.0000 C   0  0  0  0  0  0  0  0  0  0  0  0
    5.4236   -2.3250    0.0000 C   0  0  0  0  0  0  0  0  0  0  0  0
    6.7224    2.9249    0.0000 C   0  0  0  0  0  0  0  0  0  0  0  0
    2.8255   -6.8248    0.0000 C   0  0  0  0  0  0  0  0  0  0  0  0
    5.4236   -6.8248    0.0000 C   0  0  0  0  0  0  0  0  0  0  0  0
    5.4236    2.1749    0.0000 C   0  0  0  0  0  0  0  0  0  0  0  0
    8.0215    5.1748    0.0000 C   0  0  0  0  0  0  0  0  0  0  0  0
    6.7224    4.4248    0.0000 C   0  0  0  0  0  0  0  0  0  0  0  0
    8.0215    2.1749    0.0000 C   0  0  0  0  0  0  0  0  0  0  0  0
    2.8255   -8.3248    0.0000 C   0  0  0  0  0  0  0  0  0  0  0  0
    5.4236   -8.3248    0.0000 C   0  0  0  0  0  0  0  0  0  0  0  0
    9.3205    4.4248    0.0000 C   0  0  0  0  0  0  0  0  0  0  0  0
    9.3205    2.9249    0.0000 C   0  0  0  0  0  0  0  0  0  0  0  0
    6.7224    7.4248    0.0000 C   0  0  0  0  0  0  0  0  0  0  0  0
  1  8  2  0  0  0  0
  2 17  1  0  0  0  0
  2 24  1  0  0  0  0
  3  8  1  0  0  0  0
  3 16  1  0  0  0  0
  4 20  2  0  0  0  0
  4 21  1  0  0  0  0
  5  7  1  0  0  0  0
  5  9  2  0  0  0  0
  5 10  1  0  0  0  0
  6  8  1  0  0  0  0
  6 11  2  0  0  0  0
  6 12  1  0  0  0  0
  7 14  2  0  0  0  0
  7 15  1  0  0  0  0
  9 11  1  0  0  0  0
 10 12  2  0  0  0  0
 13 16  1  0  0  0  0
 13 18  2  0  0  0  0
 13 19  1  0  0  0  0
 14 20  1  0  0  0  0
 15 21  2  0  0  0  0
 17 18  1  0  0  0  0
 17 22  2  0  0  0  0
 19 23  2  0  0  0  0
 22 23  1  0  0  0  0
M  END
> <Value>
5.300000202445418

> <Relation>
<

> <SourceURI>
mol:CHEMBL2006299

$$$$

Generated by Molecular Materials Informatics

 28 31  0  0  0  0  0  0  0  0999 V2000
   -4.6828    2.2382    0.0000 Cl  0  0  0  0  0  0  0  0  0  0  0  0
   -0.5915   10.6651    0.0000 S   0  0  0  0  0  0  0  0  0  0  0  0
    0.4123   11.7797    0.0000 O   0  0  0  0  0  0  0  0  0  0  0  0
   -1.7062   11.6688    0.0000 O   0  0  0  0  0  0  0  0  0  0  0  0
   -0.2811    1.3027    0.0000 N   0  0  0  0  0  0  0  0  0  0  0  0
   -0.8213   -3.6656    0.0000 N   0  0  0  0  0  0  0  0  0  0  0  0
   -2.2118    3.0411    0.0000 N   0  0  0  0  0  0  0  0  0  0  0  0
    1.9043   -3.9522    0.0000 N   0  0  0  0  0  0  0  0  0  0  0  0
    0.2591    3.8440    0.0000 N   0  0  0  0  0  0  0  0  0  0  0  0
   -1.5951    9.5504    0.0000 N   0  0  0  0  0  0  0  0  0  0  0  0
   -0.8213   -1.2387    0.0000 C   0  0  0  0  0  0  0  0  0  0  0  0
    0.6053   -1.7022    0.0000 C   0  0  0  0  0  0  0  0  0  0  0  0
   -1.2849    0.1880    0.0000 C   0  0  0  0  0  0  0  0  0  0  0  0
    0.6053   -3.2022    0.0000 C   0  0  0  0  0  0  0  0  0  0  0  0
   -1.7029   -2.4522    0.0000 C   0  0  0  0  0  0  0  0  0  0  0  0
   -0.7448    2.7293    0.0000 C   0  0  0  0  0  0  0  0  0  0  0  0
   -2.7520    0.4998    0.0000 C   0  0  0  0  0  0  0  0  0  0  0  0
    1.9043   -0.9522    0.0000 C   0  0  0  0  0  0  0  0  0  0  0  0
   -3.2157    1.9264    0.0000 C   0  0  0  0  0  0  0  0  0  0  0  0
   -0.2046    5.2706    0.0000 C   0  0  0  0  0  0  0  0  0  0  0  0
    3.2033   -1.7022    0.0000 C   0  0  0  0  0  0  0  0  0  0  0  0
    3.2033   -3.2022    0.0000 C   0  0  0  0  0  0  0  0  0  0  0  0
   -1.1317    8.1237    0.0000 C   0  0  0  0  0  0  0  0  0  0  0  0
   -1.6717    5.5824    0.0000 C   0  0  0  0  0  0  0  0  0  0  0  0
    0.7993    6.3853    0.0000 C   0  0  0  0  0  0  0  0  0  0  0  0
   -2.1353    7.0089    0.0000 C   0  0  0  0  0  0  0  0  0  0  0  0
    0.3356    7.8119    0.0000 C   0  0  0  0  0  0  0  0  0  0  0  0
    0.5233    9.6613    0.0000 C   0  0  0  0  0  0  0  0  0  0  0  0
  1 19  1  0  0  0  0
  2  3  2  0  0  0  0
  2  4  2  0  0  0  0
  2 10  1  0  0  0  0
  2 28  1  0  0  0  0
  5 13  2  0  0  0  0
  5 16  1  0  0  0  0
  6 14  1  0  0  0  0
  6 15  1  0  0  0  0
  7 16  2  0  0  0  0
  7 19  1  0  0  0  0
  8 14  2  0  0  0  0
  8 22  1  0  0  0  0
  9 16  1  0  0  0  0
  9 20  1  0  0  0  0
 10 23  1  0  0  0  0
 11 12  1  0  0  0  0
 11 13  1  0  0  0  0
 11 15  2  0  0  0  0
 12 14  1  0  0  0  0
 12 18  2  0  0  0  0
 13 17  1  0  0  0  0
 17 19  2  0  0  0  0
 18 21  1  0  0  0  0
 20 24  1  0  0  0  0
 20 25  1  0  0  0  0
 21 22  2  0  0  0  0
 23 26  1  0  0  0  0
 23 27  1  0  0  0  0
 24 26  1  0  0  0  0
 25 27  1  0  0  0  0
M  END
> <Value>
6.699991797446187

> <Relation>
=

> <SourceURI>
mol:CHEMBL1980562

$$$$

Generated by Molecular Materials Informatics

 17 19  0  0  0  0  0  0  0  0999 V2000
    4.8896   -1.0875    0.0000 Br  0  0  0  0  0  0  0  0  0  0  0  0
   -0.4341    1.6260    0.0000 N   0  0  0  0  0  0  0  0  0  0  0  0
    2.2916   -1.0875    0.0000 N   0  0  0  0  0  0  0  0  0  0  0  0
    2.2916    1.9125    0.0000 N   0  0  0  0  0  0  0  0  0  0  0  0
    0.9925   -0.3375    0.0000 C   0  0  0  0  0  0  0  0  0  0  0  0
    0.9925    1.1625    0.0000 C   0  0  0  0  0  0  0  0  0  0  0  0
   -1.3157    0.4125    0.0000 C   0  0  0  0  0  0  0  0  0  0  0  0
   -0.4341   -0.8010    0.0000 C   0  0  0  0  0  0  0  0  0  0  0  0
   -2.8157    0.4125    0.0000 C   0  0  0  0  0  0  0  0  0  0  0  0
    3.5905   -0.3375    0.0000 C   0  0  0  0  0  0  0  0  0  0  0  0
    3.5905    1.1625    0.0000 C   0  0  0  0  0  0  0  0  0  0  0  0
   -3.5657   -0.8866    0.0000 C   0  0  0  0  0  0  0  0  0  0  0  0
   -3.5657    1.7116    0.0000 C   0  0  0  0  0  0  0  0  0  0  0  0
   -5.0657   -0.8866    0.0000 C   0  0  0  0  0  0  0  0  0  0  0  0
   -5.0657    1.7116    0.0000 C   0  0  0  0  0  0  0  0  0  0  0  0
   -5.8157    0.4125    0.0000 C   0  0  0  0  0  0  0  0  0  0  0  0
   -7.3157    0.4125    0.0000 C   0  0  0  0  0  0  0  0  0  0  0  0
  1 10  1  0  0  0  0
  2  6  1  0  0  0  0
  2  7  1  0  0  0  0
  3  5  2  0  0  0  0
  3 10  1  0  0  0  0
  4  6  2  0  0  0  0
  4 11  1  0  0  0  0
  5  6  1  0  0  0  0
  5  8  1  0  0  0  0
  7  8  2  0  0  0  0
  7  9  1  0  0  0  0
  9 12  2  0  0  0  0
  9 13  1  0  0  0  0
 10 11  2  0  0  0  0
 12 14  1  0  0  0  0
 13 15  2  0  0  0  0
 14 16  2  0  0  0  0
 15 16  1  0  0  0  0
 16 17  1  0  0  0  0
M  END
> <Value>
5.300000202445418

> <Relation>
<

> <SourceURI>
mol:CHEMBL1965169

$$$$

Generated by Molecular Materials Informatics

 25 28  0  0  0  0  0  0  0  0999 V2000
    4.1115    2.2342    0.0000 O   0  0  0  0  0  0  0  0  0  0  0  0
    1.2020    1.7211    0.0000 N   0  0  0  0  0  0  0  0  0  0  0  0
    7.2020   -0.8769    0.0000 N   0  0  0  0  0  0  0  0  0  0  0  0
   -3.2980   -0.8769    0.0000 N   0  0  0  0  0  0  0  0  0  0  0  0
    2.7020    1.7211    0.0000 C   0  0  0  0  0  0  0  0  0  0  0  0
    3.4520    0.4222    0.0000 C   0  0  0  0  0  0  0  0  0  0  0  0
    2.7020   -0.8769    0.0000 C   0  0  0  0  0  0  0  0  0  0  0  0
    0.4520    0.4222    0.0000 C   0  0  0  0  0  0  0  0  0  0  0  0
    1.2020   -0.8769    0.0000 C   0  0  0  0  0  0  0  0  0  0  0  0
    2.4415    3.1984    0.0000 C   0  0  0  0  0  0  0  0  0  0  0  0
    4.9520    0.4222    0.0000 C   0  0  0  0  0  0  0  0  0  0  0  0
   -1.0480    0.4222    0.0000 C   0  0  0  0  0  0  0  0  0  0  0  0
    3.4520   -2.1760    0.0000 C   0  0  0  0  0  0  0  0  0  0  0  0
    0.4520   -2.1760    0.0000 C   0  0  0  0  0  0  0  0  0  0  0  0
    0.4520    3.0202    0.0000 C   0  0  0  0  0  0  0  0  0  0  0  0
    5.7020   -0.8769    0.0000 C   0  0  0  0  0  0  0  0  0  0  0  0
    1.0320    3.7115    0.0000 C   0  0  0  0  0  0  0  0  0  0  0  0
    3.5905    4.1626    0.0000 C   0  0  0  0  0  0  0  0  0  0  0  0
   -1.7980   -0.8769    0.0000 C   0  0  0  0  0  0  0  0  0  0  0  0
    4.9520   -2.1760    0.0000 C   0  0  0  0  0  0  0  0  0  0  0  0
   -1.0480   -2.1760    0.0000 C   0  0  0  0  0  0  0  0  0  0  0  0
    0.7715    5.1886    0.0000 C   0  0  0  0  0  0  0  0  0  0  0  0
    3.3300    5.6399    0.0000 C   0  0  0  0  0  0  0  0  0  0  0  0
   -1.0480    3.0202    0.0000 C   0  0  0  0  0  0  0  0  0  0  0  0
    1.9205    6.1528    0.0000 C   0  0  0  0  0  0  0  0  0  0  0  0
  1  5  1  0  0  0  0
  2  5  1  0  0  0  0
  2  8  1  0  0  0  0
  2 15  1  0  0  0  0
  3 16  1  0  0  0  0
  4 19  1  0  0  0  0
  5  6  1  0  0  0  0
  5 10  1  0  0  0  0
  6  7  1  0  0  0  0
  6 11  2  0  0  0  0
  7  9  1  0  0  0  0
  7 13  2  0  0  0  0
  8  9  1  0  0  0  0
  8 12  2  0  0  0  0
  9 14  2  0  0  0  0
 10 17  2  0  0  0  0
 10 18  1  0  0  0  0
 11 16  1  0  0  0  0
 12 19  1  0  0  0  0
 13 20  1  0  0  0  0
 14 21  1  0  0  0  0
 15 24  1  0  0  0  0
 16 20  2  0  0  0  0
 17 22  1  0  0  0  0
 18 23  2  0  0  0  0
 19 21  2  0  0  0  0
 22 25  2  0  0  0  0
 23 25  1  0  0  0  0
M  END
> <Value>
5.300000202445418

> <Relation>
<

> <SourceURI>
mol:CHEMBL1991818

$$$$

Generated by Molecular Materials Informatics

 24 28  0  0  0  0  0  0  0  0999 V2000
    4.1290    2.8767    0.0000 C   0  0  0  0  0  0  0  0  0  0  0  0
    4.2857    4.3683    0.0000 C   0  0  0  0  0  0  0  0  0  0  0  0
    2.9156    4.9785    0.0000 C   0  0  0  0  0  0  0  0  0  0  0  0
    1.9118    3.8638    0.0000 C   0  0  0  0  0  0  0  0  0  0  0  0
    2.6618    2.5647    0.0000 C   0  0  0  0  0  0  0  0  0  0  0  0
    2.0518    1.1946    0.0000 N   0  0  0  0  0  0  0  0  0  0  0  0
    0.5846    0.8826    0.0000 N   0  0  0  0  0  0  0  0  0  0  0  0
    2.8018   -0.1045    0.0000 C   0  0  0  0  0  0  0  0  0  0  0  0
    4.2688   -0.4163    0.0000 N   0  0  0  0  0  0  0  0  0  0  0  0
    4.7324   -1.8430    0.0000 C   0  0  0  0  0  0  0  0  0  0  0  0
    3.7286   -2.9577    0.0000 N   0  0  0  0  0  0  0  0  0  0  0  0
    2.2616   -2.6457    0.0000 C   0  0  0  0  0  0  0  0  0  0  0  0
    1.2578   -3.7604    0.0000 N   0  0  0  0  0  0  0  0  0  0  0  0
    1.7980   -1.2192    0.0000 C   0  0  0  0  0  0  0  0  0  0  0  0
    0.4278   -0.6090    0.0000 C   0  0  0  0  0  0  0  0  0  0  0  0
   -0.8712   -1.3590    0.0000 C   0  0  0  0  0  0  0  0  0  0  0  0
   -2.1703   -0.6090    0.0000 C   0  0  0  0  0  0  0  0  0  0  0  0
   -3.4693   -1.3590    0.0000 C   0  0  0  0  0  0  0  0  0  0  0  0
   -4.8958   -0.8955    0.0000 C   0  0  0  0  0  0  0  0  0  0  0  0
   -5.7774   -2.1090    0.0000 C   0  0  0  0  0  0  0  0  0  0  0  0
   -4.8958   -3.3226    0.0000 N   0  0  0  0  0  0  0  0  0  0  0  0
   -3.4693   -2.8589    0.0000 C   0  0  0  0  0  0  0  0  0  0  0  0
   -2.1703   -3.6089    0.0000 N   0  0  0  0  0  0  0  0  0  0  0  0
   -0.8712   -2.8589    0.0000 C   0  0  0  0  0  0  0  0  0  0  0  0
  2  1  1  0  0  0  0
  1  5  1  0  0  0  0
  2  3  1  0  0  0  0
  3  4  1  0  0  0  0
  4  5  1  0  0  0  0
  5  6  1  0  0  0  0
  7  6  1  0  0  0  0
  8  6  1  0  0  0  0
 15  7  2  0  0  0  0
  8  9  2  0  0  0  0
  8 14  1  0  0  0  0
 10  9  1  0  0  0  0
 10 11  2  0  0  0  0
 12 11  1  0  0  0  0
 12 13  1  0  0  0  0
 14 12  2  0  0  0  0
 14 15  1  0  0  0  0
 16 15  1  0  0  0  0
 17 16  2  0  0  0  0
 24 16  1  0  0  0  0
 17 18  1  0  0  0  0
 19 18  1  0  0  0  0
 18 22  2  0  0  0  0
 20 19  2  0  0  0  0
 20 21  1  0  0  0  0
 22 21  1  0  0  0  0
 22 23  1  0  0  0  0
 24 23  2  0  0  0  0
M  END
> <Value>
5.300000202445418

> <Relation>
=

> <SourceURI>
mol:CHEMBL1081312

$$$$

Generated by Molecular Materials Informatics

 38 42  0  0  0  0  0  0  0  0999 V2000
    1.2273    2.9292    0.0000 S   0  0  0  0  0  0  0  0  0  0  0  0
    4.4231    9.7645    0.0000 O   0  0  0  0  0  0  0  0  0  0  0  0
   -3.0978   -4.4013    0.0000 O   0  0  0  0  0  0  0  0  0  0  0  0
   -8.4265   -8.1901    0.0000 O   0  0  0  0  0  0  0  0  0  0  0  0
    2.6599   12.1916    0.0000 O   0  0  0  0  0  0  0  0  0  0  0  0
    5.2520    0.9656    0.0000 N   0  0  0  0  0  0  0  0  0  0  0  0
    3.2030    7.0239    0.0000 N   0  0  0  0  0  0  0  0  0  0  0  0
    3.9530   -1.2844    0.0000 N   0  0  0  0  0  0  0  0  0  0  0  0
    4.7030    7.0239    0.0000 N   0  0  0  0  0  0  0  0  0  0  0  0
   -0.6269   -5.2042    0.0000 N   0  0  0  0  0  0  0  0  0  0  0  0
   -2.5576   -6.9426    0.0000 N   0  0  0  0  0  0  0  0  0  0  0  0
    2.6539    0.9656    0.0000 C   0  0  0  0  0  0  0  0  0  0  0  0
    2.6539    2.4656    0.0000 C   0  0  0  0  0  0  0  0  0  0  0  0
    1.2273    0.5021    0.0000 C   0  0  0  0  0  0  0  0  0  0  0  0
    3.9530    3.2156    0.0000 C   0  0  0  0  0  0  0  0  0  0  0  0
    3.9530    0.2156    0.0000 C   0  0  0  0  0  0  0  0  0  0  0  0
    3.9530    4.7156    0.0000 C   0  0  0  0  0  0  0  0  0  0  0  0
    0.7639   -0.9244    0.0000 C   0  0  0  0  0  0  0  0  0  0  0  0
    0.3457    1.7156    0.0000 C   0  0  0  0  0  0  0  0  0  0  0  0
    5.2520    2.4656    0.0000 C   0  0  0  0  0  0  0  0  0  0  0  0
    2.7393    5.5974    0.0000 C   0  0  0  0  0  0  0  0  0  0  0  0
    5.1664    5.5974    0.0000 C   0  0  0  0  0  0  0  0  0  0  0  0
    1.7675   -2.0391    0.0000 C   0  0  0  0  0  0  0  0  0  0  0  0
   -0.7034   -1.2362    0.0000 C   0  0  0  0  0  0  0  0  0  0  0  0
   -0.1632   -3.7777    0.0000 C   0  0  0  0  0  0  0  0  0  0  0  0
    1.3039   -3.4657    0.0000 C   0  0  0  0  0  0  0  0  0  0  0  0
   -1.1670   -2.6630    0.0000 C   0  0  0  0  0  0  0  0  0  0  0  0
    2.3213    8.2374    0.0000 C   0  0  0  0  0  0  0  0  0  0  0  0
    2.9313    9.6078    0.0000 C   0  0  0  0  0  0  0  0  0  0  0  0
   -2.0939   -5.5161    0.0000 C   0  0  0  0  0  0  0  0  0  0  0  0
   -4.0247   -7.2546    0.0000 C   0  0  0  0  0  0  0  0  0  0  0  0
    2.0497   10.8212    0.0000 C   0  0  0  0  0  0  0  0  0  0  0  0
   -4.4883   -8.6811    0.0000 C   0  0  0  0  0  0  0  0  0  0  0  0
   -5.0285   -6.1399    0.0000 C   0  0  0  0  0  0  0  0  0  0  0  0
   -6.9592   -7.8782    0.0000 C   0  0  0  0  0  0  0  0  0  0  0  0
   -5.9556   -8.9930    0.0000 C   0  0  0  0  0  0  0  0  0  0  0  0
   -6.4958   -6.4517    0.0000 C   0  0  0  0  0  0  0  0  0  0  0  0
   -8.8899   -9.6168    0.0000 C   0  0  0  0  0  0  0  0  0  0  0  0
  1 13  1  0  0  0  0
  1 19  1  0  0  0  0
  2 29  1  0  0  0  0
  3 30  2  0  0  0  0
  4 35  1  0  0  0  0
  4 38  1  0  0  0  0
  5 32  1  0  0  0  0
  6 16  1  0  0  0  0
  6 20  2  0  0  0  0
  7  9  1  0  0  0  0
  7 21  1  0  0  0  0
  7 28  1  0  0  0  0
  8 16  1  0  0  0  0
  9 22  2  0  0  0  0
 10 25  1  0  0  0  0
 10 30  1  0  0  0  0
 11 30  1  0  0  0  0
 11 31  1  0  0  0  0
 12 13  1  0  0  0  0
 12 14  1  0  0  0  0
 12 16  2  0  0  0  0
 13 15  2  0  0  0  0
 14 18  1  0  0  0  0
 14 19  2  0  0  0  0
 15 17  1  0  0  0  0
 15 20  1  0  0  0  0
 17 21  2  0  0  0  0
 17 22  1  0  0  0  0
 18 23  2  0  0  0  0
 18 24  1  0  0  0  0
 23 26  1  0  0  0  0
 24 27  2  0  0  0  0
 25 26  2  0  0  0  0
 25 27  1  0  0  0  0
 28 29  1  0  0  0  0
 29 32  1  0  0  0  0
 31 33  2  0  0  0  0
 31 34  1  0  0  0  0
 33 36  1  0  0  0  0
 34 37  2  0  0  0  0
 35 36  2  0  0  0  0
 35 37  1  0  0  0  0
M  END
> <Value>
5.300000202445418

> <Relation>
<

> <SourceURI>
mol:CHEMBL1965170

$$$$

Generated by Molecular Materials Informatics

 22 24  0  0  0  0  0  0  0  0999 V2000
    4.9300   -7.8007    0.0000 Cl  0  0  0  0  0  0  0  0  0  0  0  0
   -0.6456    3.1114    0.0000 O   0  0  0  0  0  0  0  0  0  0  0  0
    0.6534   -0.6385    0.0000 N   0  0  0  0  0  0  0  0  0  0  0  0
    1.8669   -1.5201    0.0000 N   0  0  0  0  0  0  0  0  0  0  0  0
   -2.4700   -4.0033    0.0000 N   0  0  0  0  0  0  0  0  0  0  0  0
   -2.7416   -6.5873    0.0000 N   0  0  0  0  0  0  0  0  0  0  0  0
    1.4034   -2.9466    0.0000 C   0  0  0  0  0  0  0  0  0  0  0  0
   -0.0966   -2.9466    0.0000 C   0  0  0  0  0  0  0  0  0  0  0  0
    2.2850   -4.1602    0.0000 C   0  0  0  0  0  0  0  0  0  0  0  0
   -0.9784   -4.1602    0.0000 C   0  0  0  0  0  0  0  0  0  0  0  0
   -0.5602   -1.5201    0.0000 C   0  0  0  0  0  0  0  0  0  0  0  0
    3.7768   -4.0033    0.0000 C   0  0  0  0  0  0  0  0  0  0  0  0
    1.6749   -5.5306    0.0000 C   0  0  0  0  0  0  0  0  0  0  0  0
   -0.3682   -5.5306    0.0000 C   0  0  0  0  0  0  0  0  0  0  0  0
    0.6534    0.8615    0.0000 C   0  0  0  0  0  0  0  0  0  0  0  0
    4.6584   -5.2169    0.0000 C   0  0  0  0  0  0  0  0  0  0  0  0
    2.5567   -6.7440    0.0000 C   0  0  0  0  0  0  0  0  0  0  0  0
    4.0483   -6.5873    0.0000 C   0  0  0  0  0  0  0  0  0  0  0  0
   -3.3517   -5.2169    0.0000 C   0  0  0  0  0  0  0  0  0  0  0  0
   -1.2498   -6.7440    0.0000 C   0  0  0  0  0  0  0  0  0  0  0  0
   -0.6456    1.6114    0.0000 C   0  0  0  0  0  0  0  0  0  0  0  0
   -1.9447    3.8614    0.0000 C   0  0  0  0  0  0  0  0  0  0  0  0
  1 18  1  0  0  0  0
  2 21  1  0  0  0  0
  2 22  1  0  0  0  0
  3  4  1  0  0  0  0
  3 11  1  0  0  0  0
  3 15  1  0  0  0  0
  4  7  2  0  0  0  0
  5 10  1  0  0  0  0
  5 19  2  0  0  0  0
  6 19  1  0  0  0  0
  6 20  2  0  0  0  0
  7  8  1  0  0  0  0
  7  9  1  0  0  0  0
  8 10  1  0  0  0  0
  8 11  2  0  0  0  0
  9 12  2  0  0  0  0
  9 13  1  0  0  0  0
 10 14  2  0  0  0  0
 12 16  1  0  0  0  0
 13 17  2  0  0  0  0
 14 20  1  0  0  0  0
 15 21  1  0  0  0  0
 16 18  2  0  0  0  0
 17 18  1  0  0  0  0
M  END
> <Value>
5.899998417198648

> <Relation>
<

> <SourceURI>
mol:CHEMBL1982866

$$$$

Generated by Molecular Materials Informatics

 31 34  0  0  0  0  0  0  0  0999 V2000
   -6.1930    0.2960    0.0000 F   0  0  0  0  0  0  0  0  0  0  0  0
    3.4143    3.2960    0.0000 O   0  0  0  0  0  0  0  0  0  0  0  0
   -7.0345   -7.8714    0.0000 O   0  0  0  0  0  0  0  0  0  0  0  0
    2.1152   -0.4540    0.0000 N   0  0  0  0  0  0  0  0  0  0  0  0
    0.6886    1.5095    0.0000 N   0  0  0  0  0  0  0  0  0  0  0  0
   -1.2421   -2.6560    0.0000 N   0  0  0  0  0  0  0  0  0  0  0  0
    4.7134    1.0460    0.0000 N   0  0  0  0  0  0  0  0  0  0  0  0
   -0.7019   -5.1972    0.0000 N   0  0  0  0  0  0  0  0  0  0  0  0
   -3.1728   -4.3945    0.0000 N   0  0  0  0  0  0  0  0  0  0  0  0
    0.6886   -0.9176    0.0000 C   0  0  0  0  0  0  0  0  0  0  0  0
   -0.1930    0.2960    0.0000 C   0  0  0  0  0  0  0  0  0  0  0  0
    2.1152    1.0460    0.0000 C   0  0  0  0  0  0  0  0  0  0  0  0
    0.2252   -2.3442    0.0000 C   0  0  0  0  0  0  0  0  0  0  0  0
    3.4143    1.7960    0.0000 C   0  0  0  0  0  0  0  0  0  0  0  0
   -1.6930    0.2960    0.0000 C   0  0  0  0  0  0  0  0  0  0  0  0
    3.4143   -1.2040    0.0000 C   0  0  0  0  0  0  0  0  0  0  0  0
    1.2288   -3.4589    0.0000 C   0  0  0  0  0  0  0  0  0  0  0  0
    4.7134   -0.4540    0.0000 C   0  0  0  0  0  0  0  0  0  0  0  0
   -2.4430   -1.0031    0.0000 C   0  0  0  0  0  0  0  0  0  0  0  0
   -2.4430    1.5949    0.0000 C   0  0  0  0  0  0  0  0  0  0  0  0
   -1.7057   -4.0827    0.0000 C   0  0  0  0  0  0  0  0  0  0  0  0
    0.7652   -4.8854    0.0000 C   0  0  0  0  0  0  0  0  0  0  0  0
   -3.9430   -1.0031    0.0000 C   0  0  0  0  0  0  0  0  0  0  0  0
   -3.9430    1.5949    0.0000 C   0  0  0  0  0  0  0  0  0  0  0  0
   -4.6930    0.2960    0.0000 C   0  0  0  0  0  0  0  0  0  0  0  0
    2.1152    4.0460    0.0000 C   0  0  0  0  0  0  0  0  0  0  0  0
   -3.6365   -5.8211    0.0000 C   0  0  0  0  0  0  0  0  0  0  0  0
   -5.1036   -6.1329    0.0000 C   0  0  0  0  0  0  0  0  0  0  0  0
   -6.5708   -6.4449    0.0000 C   0  0  0  0  0  0  0  0  0  0  0  0
   -5.4156   -4.6658    0.0000 C   0  0  0  0  0  0  0  0  0  0  0  0
   -4.7917   -7.6002    0.0000 C   0  0  0  0  0  0  0  0  0  0  0  0
  1 25  1  0  0  0  0
  2 14  1  0  0  0  0
  2 26  1  0  0  0  0
  3 29  1  0  0  0  0
  4 10  1  0  0  0  0
  4 12  1  0  0  0  0
  4 16  1  0  0  0  0
  5 11  1  0  0  0  0
  5 12  2  0  0  0  0
  6 13  1  0  0  0  0
  6 21  2  0  0  0  0
  7 14  2  0  0  0  0
  7 18  1  0  0  0  0
  8 21  1  0  0  0  0
  8 22  2  0  0  0  0
  9 21  1  0  0  0  0
  9 27  1  0  0  0  0
 10 11  2  0  0  0  0
 10 13  1  0  0  0  0
 11 15  1  0  0  0  0
 12 14  1  0  0  0  0
 13 17  2  0  0  0  0
 15 19  2  0  0  0  0
 15 20  1  0  0  0  0
 16 18  2  0  0  0  0
 17 22  1  0  0  0  0
 19 23  1  0  0  0  0
 20 24  2  0  0  0  0
 23 25  2  0  0  0  0
 24 25  1  0  0  0  0
 27 28  1  0  0  0  0
 28 29  1  0  0  0  0
 28 30  1  0  0  0  0
 28 31  1  0  0  0  0
M  END
> <Value>
5.59999938302362

> <Relation>
<

> <SourceURI>
mol:CHEMBL2005792

$$$$

Generated by Molecular Materials Informatics

 22 23  0  0  0  0  0  0  0  0999 V2000
    1.6888    6.6187    0.0000 O   0  0  0  0  0  0  0  0  0  0  0  0
    4.2868    0.6189    0.0000 O   0  0  0  0  0  0  0  0  0  0  0  0
    2.9879    4.3688    0.0000 N   0  0  0  0  0  0  0  0  0  0  0  0
    5.5858    2.8688    0.0000 N   0  0  0  0  0  0  0  0  0  0  0  0
   -0.9093    2.1188    0.0000 N   0  0  0  0  0  0  0  0  0  0  0  0
   -2.2081    5.8687    0.0000 N   0  0  0  0  0  0  0  0  0  0  0  0
   10.7818    4.3688    0.0000 N   0  0  0  0  0  0  0  0  0  0  0  0
    0.3898    4.3688    0.0000 C   0  0  0  0  0  0  0  0  0  0  0  0
    2.9879    2.8688    0.0000 C   0  0  0  0  0  0  0  0  0  0  0  0
    1.6888    5.1187    0.0000 C   0  0  0  0  0  0  0  0  0  0  0  0
    0.3898    2.8688    0.0000 C   0  0  0  0  0  0  0  0  0  0  0  0
    1.6888    2.1188    0.0000 C   0  0  0  0  0  0  0  0  0  0  0  0
    4.2868    2.1188    0.0000 C   0  0  0  0  0  0  0  0  0  0  0  0
   -0.9093    5.1187    0.0000 C   0  0  0  0  0  0  0  0  0  0  0  0
    6.8849    2.1188    0.0000 C   0  0  0  0  0  0  0  0  0  0  0  0
    8.1837    2.8688    0.0000 C   0  0  0  0  0  0  0  0  0  0  0  0
    0.3898    7.3687    0.0000 C   0  0  0  0  0  0  0  0  0  0  0  0
    9.4828    2.1188    0.0000 C   0  0  0  0  0  0  0  0  0  0  0  0
    8.1837    4.3688    0.0000 C   0  0  0  0  0  0  0  0  0  0  0  0
   10.7818    2.8688    0.0000 C   0  0  0  0  0  0  0  0  0  0  0  0
    9.4828    5.1187    0.0000 C   0  0  0  0  0  0  0  0  0  0  0  0
    0.3898    8.8686    0.0000 C   0  0  0  0  0  0  0  0  0  0  0  0
  1 10  1  0  0  0  0
  1 17  1  0  0  0  0
  2 13  2  0  0  0  0
  3  9  1  0  0  0  0
  3 10  2  0  0  0  0
  4 13  1  0  0  0  0
  4 15  1  0  0  0  0
  5 11  1  0  0  0  0
  6 14  3  0  0  0  0
  7 20  2  0  0  0  0
  7 21  1  0  0  0  0
  8 10  1  0  0  0  0
  8 11  2  0  0  0  0
  8 14  1  0  0  0  0
  9 12  2  0  0  0  0
  9 13  1  0  0  0  0
 11 12  1  0  0  0  0
 15 16  1  0  0  0  0
 16 18  2  0  0  0  0
 16 19  1  0  0  0  0
 17 22  1  0  0  0  0
 18 20  1  0  0  0  0
 19 21  2  0  0  0  0
M  END
> <Value>
5.899998417198648

> <Relation>
<

> <SourceURI>
mol:CHEMBL1984206

$$$$

Generated by Molecular Materials Informatics

 22 24  0  0  0  0  0  0  0  0999 V2000
    0.7623   -6.4995    0.0000 O   0  0  0  0  0  0  0  0  0  0  0  0
   -1.7983   -3.9390    0.0000 O   0  0  0  0  0  0  0  0  0  0  0  0
    0.7623   -1.3782    0.0000 N   0  0  0  0  0  0  0  0  0  0  0  0
    3.3230   -3.9390    0.0000 N   0  0  0  0  0  0  0  0  0  0  0  0
    5.5730   -7.8361    0.0000 N   0  0  0  0  0  0  0  0  0  0  0  0
    0.7623   -2.8782    0.0000 C   0  0  0  0  0  0  0  0  0  0  0  0
    1.8230   -3.9390    0.0000 C   0  0  0  0  0  0  0  0  0  0  0  0
   -0.2983   -3.9390    0.0000 C   0  0  0  0  0  0  0  0  0  0  0  0
    0.7623   -4.9995    0.0000 C   0  0  0  0  0  0  0  0  0  0  0  0
   -0.5366   -0.6282    0.0000 C   0  0  0  0  0  0  0  0  0  0  0  0
    4.0730   -5.2379    0.0000 C   0  0  0  0  0  0  0  0  0  0  0  0
   -0.5366    0.8718    0.0000 C   0  0  0  0  0  0  0  0  0  0  0  0
    3.3230   -6.5370    0.0000 C   0  0  0  0  0  0  0  0  0  0  0  0
    5.5730   -5.2379    0.0000 C   0  0  0  0  0  0  0  0  0  0  0  0
   -1.8357   -1.3782    0.0000 C   0  0  0  0  0  0  0  0  0  0  0  0
   -1.8357    1.6218    0.0000 C   0  0  0  0  0  0  0  0  0  0  0  0
    0.7623    1.6218    0.0000 C   0  0  0  0  0  0  0  0  0  0  0  0
    4.0730   -7.8361    0.0000 C   0  0  0  0  0  0  0  0  0  0  0  0
    6.3230   -6.5370    0.0000 C   0  0  0  0  0  0  0  0  0  0  0  0
   -1.8357    3.1218    0.0000 C   0  0  0  0  0  0  0  0  0  0  0  0
    0.7623    3.1218    0.0000 C   0  0  0  0  0  0  0  0  0  0  0  0
   -0.5366    3.8718    0.0000 C   0  0  0  0  0  0  0  0  0  0  0  0
  1  9  2  0  0  0  0
  2  8  2  0  0  0  0
  3  6  1  0  0  0  0
  3 10  1  0  0  0  0
  4  7  1  0  0  0  0
  4 11  1  0  0  0  0
  5 18  2  0  0  0  0
  5 19  1  0  0  0  0
  6  7  2  0  0  0  0
  6  8  1  0  0  0  0
  7  9  1  0  0  0  0
  8  9  1  0  0  0  0
 10 12  1  0  0  0  0
 10 15  1  0  0  0  0
 11 13  2  0  0  0  0
 11 14  1  0  0  0  0
 12 16  1  0  0  0  0
 12 17  1  0  0  0  0
 13 18  1  0  0  0  0
 14 19  2  0  0  0  0
 16 20  1  0  0  0  0
 17 21  1  0  0  0  0
 20 22  1  0  0  0  0
 21 22  1  0  0  0  0
M  END
> <Value>
6.699991797446187

> <Relation>
=

> <SourceURI>
mol:CHEMBL1991577

$$$$

Generated by Molecular Materials Informatics

 10 11  0  0  0  0  0  0  0  0999 V2000
   -1.4166    1.4008    0.0000 Cl  0  0  0  0  0  0  0  0  0  0  0  0
    0.9650    0.1874    0.0000 S   0  0  0  0  0  0  0  0  0  0  0  0
    0.9650    2.6145    0.0000 N   0  0  0  0  0  0  0  0  0  0  0  0
    3.8183    2.6145    0.0000 N   0  0  0  0  0  0  0  0  0  0  0  0
    4.6999    1.4008    0.0000 N   0  0  0  0  0  0  0  0  0  0  0  0
    4.2817   -1.2392    0.0000 N   0  0  0  0  0  0  0  0  0  0  0  0
    2.3917    0.6508    0.0000 C   0  0  0  0  0  0  0  0  0  0  0  0
    2.3917    2.1508    0.0000 C   0  0  0  0  0  0  0  0  0  0  0  0
    3.8183    0.1874    0.0000 C   0  0  0  0  0  0  0  0  0  0  0  0
    0.0834    1.4008    0.0000 C   0  0  0  0  0  0  0  0  0  0  0  0
  1 10  1  0  0  0  0
  2  7  1  0  0  0  0
  2 10  1  0  0  0  0
  3  8  1  0  0  0  0
  3 10  2  0  0  0  0
  4  5  1  0  0  0  0
  4  8  1  0  0  0  0
  5  9  2  0  0  0  0
  6  9  1  0  0  0  0
  7  8  2  0  0  0  0
  7  9  1  0  0  0  0
M  END
> <Value>
4.499999953328896

> <Relation>
=

> <SourceURI>
mol:CHEMBL1991867

$$$$

Generated by Molecular Materials Informatics

 24 26  0  0  0  0  0  0  0  0999 V2000
   -6.2030    0.9375    0.0000 F   0  0  0  0  0  0  0  0  0  0  0  0
    4.1894   -3.5625    0.0000 O   0  0  0  0  0  0  0  0  0  0  0  0
    5.4885   -5.8125    0.0000 O   0  0  0  0  0  0  0  0  0  0  0  0
    1.5914   -3.5625    0.0000 N   0  0  0  0  0  0  0  0  0  0  0  0
    0.2923   -1.3125    0.0000 N   0  0  0  0  0  0  0  0  0  0  0  0
   -1.0068    0.9375    0.0000 N   0  0  0  0  0  0  0  0  0  0  0  0
   -1.0068   -3.5625    0.0000 N   0  0  0  0  0  0  0  0  0  0  0  0
   -2.3057   -1.3125    0.0000 N   0  0  0  0  0  0  0  0  0  0  0  0
    1.5914   -5.0625    0.0000 C   0  0  0  0  0  0  0  0  0  0  0  0
    0.2923   -2.8125    0.0000 C   0  0  0  0  0  0  0  0  0  0  0  0
    2.8903   -5.8125    0.0000 C   0  0  0  0  0  0  0  0  0  0  0  0
   -1.0068   -0.5625    0.0000 C   0  0  0  0  0  0  0  0  0  0  0  0
   -2.3057    1.6875    0.0000 C   0  0  0  0  0  0  0  0  0  0  0  0
    0.2923   -5.8125    0.0000 C   0  0  0  0  0  0  0  0  0  0  0  0
    4.1894   -5.0625    0.0000 C   0  0  0  0  0  0  0  0  0  0  0  0
    2.8903   -7.3125    0.0000 C   0  0  0  0  0  0  0  0  0  0  0  0
   -2.3057   -2.8125    0.0000 C   0  0  0  0  0  0  0  0  0  0  0  0
   -3.6048    0.9375    0.0000 C   0  0  0  0  0  0  0  0  0  0  0  0
    0.2923   -7.3125    0.0000 C   0  0  0  0  0  0  0  0  0  0  0  0
    1.5914   -8.0625    0.0000 C   0  0  0  0  0  0  0  0  0  0  0  0
   -2.3057    3.1875    0.0000 C   0  0  0  0  0  0  0  0  0  0  0  0
   -4.9039    1.6875    0.0000 C   0  0  0  0  0  0  0  0  0  0  0  0
   -3.6048    3.9375    0.0000 C   0  0  0  0  0  0  0  0  0  0  0  0
   -4.9039    3.1875    0.0000 C   0  0  0  0  0  0  0  0  0  0  0  0
  1 22  1  0  0  0  0
  2 15  2  0  0  0  0
  3 15  1  0  0  0  0
  4  9  1  0  0  0  0
  4 10  1  0  0  0  0
  5 10  1  0  0  0  0
  5 12  2  0  0  0  0
  6 12  1  0  0  0  0
  6 13  1  0  0  0  0
  7 10  2  0  0  0  0
  7 17  1  0  0  0  0
  8 12  1  0  0  0  0
  8 17  2  0  0  0  0
  9 11  1  0  0  0  0
  9 14  2  0  0  0  0
 11 15  1  0  0  0  0
 11 16  2  0  0  0  0
 13 18  1  0  0  0  0
 13 21  2  0  0  0  0
 14 19  1  0  0  0  0
 16 20  1  0  0  0  0
 18 22  2  0  0  0  0
 19 20  2  0  0  0  0
 21 23  1  0  0  0  0
 22 24  1  0  0  0  0
 23 24  2  0  0  0  0
M  END
> <Value>
6.499996931948306

> <Relation>
=

> <SourceURI>
mol:CHEMBL1979933

$$$$

Generated by Molecular Materials Informatics

 14 16  0  0  0  0  0  0  0  0999 V2000
   -2.8144    0.5952    0.0000 Cl  0  0  0  0  0  0  0  0  0  0  0  0
    3.1827    0.7825    0.0000 N   0  0  0  0  0  0  0  0  0  0  0  0
    4.1511    1.9281    0.0000 N   0  0  0  0  0  0  0  0  0  0  0  0
    3.2638   -1.8142    0.0000 N   0  0  0  0  0  0  0  0  0  0  0  0
    1.7645   -1.8612    0.0000 N   0  0  0  0  0  0  0  0  0  0  0  0
    5.4296   -0.1350    0.0000 N   0  0  0  0  0  0  0  0  0  0  0  0
    5.5398    1.3610    0.0000 N   0  0  0  0  0  0  0  0  0  0  0  0
    1.6834    0.7357    0.0000 C   0  0  0  0  0  0  0  0  0  0  0  0
    3.9729   -0.4924    0.0000 C   0  0  0  0  0  0  0  0  0  0  0  0
    0.9743   -0.5861    0.0000 C   0  0  0  0  0  0  0  0  0  0  0  0
    0.8932    2.0107    0.0000 C   0  0  0  0  0  0  0  0  0  0  0  0
   -0.5249   -0.6330    0.0000 C   0  0  0  0  0  0  0  0  0  0  0  0
   -1.3151    0.6419    0.0000 C   0  0  0  0  0  0  0  0  0  0  0  0
   -0.6060    1.9637    0.0000 C   0  0  0  0  0  0  0  0  0  0  0  0
  1 13  1  0  0  0  0
  2  3  1  0  0  0  0
  2  8  1  0  0  0  0
  2  9  1  0  0  0  0
  3  7  2  0  0  0  0
  4  5  2  0  0  0  0
  4  9  1  0  0  0  0
  5 10  1  0  0  0  0
  6  7  1  0  0  0  0
  6  9  2  0  0  0  0
  8 10  1  0  0  0  0
  8 11  2  0  0  0  0
 10 12  2  0  0  0  0
 11 14  1  0  0  0  0
 12 13  1  0  0  0  0
 13 14  2  0  0  0  0
M  END
> <Value>
5.300000202445418

> <Relation>
<

> <SourceURI>
mol:CHEMBL1986503

$$$$

Generated by Molecular Materials Informatics

 23 27  0  0  0  0  0  0  0  0999 V2000
    0.0830   -2.5867    0.0000 S   0  0  0  0  0  0  0  0  0  0  0  0
    5.3343   -3.5080    0.0000 O   0  0  0  0  0  0  0  0  0  0  0  0
    4.3138   -1.1187    0.0000 N   0  0  0  0  0  0  0  0  0  0  0  0
    3.5990    1.2007    0.0000 N   0  0  0  0  0  0  0  0  0  0  0  0
    2.7549   -3.1971    0.0000 N   0  0  0  0  0  0  0  0  0  0  0  0
    5.5405   -0.2556    0.0000 N   0  0  0  0  0  0  0  0  0  0  0  0
    1.7343   -0.8080    0.0000 C   0  0  0  0  0  0  0  0  0  0  0  0
    3.1138   -0.2187    0.0000 C   0  0  0  0  0  0  0  0  0  0  0  0
    1.5549   -2.2971    0.0000 C   0  0  0  0  0  0  0  0  0  0  0  0
    0.3734   -0.1771    0.0000 C   0  0  0  0  0  0  0  0  0  0  0  0
   -0.6470   -1.2764    0.0000 C   0  0  0  0  0  0  0  0  0  0  0  0
    4.1343   -2.6080    0.0000 C   0  0  0  0  0  0  0  0  0  0  0  0
    5.0989    1.1778    0.0000 C   0  0  0  0  0  0  0  0  0  0  0  0
   -0.0682    1.2564    0.0000 C   0  0  0  0  0  0  0  0  0  0  0  0
    5.9989    2.3778    0.0000 C   0  0  0  0  0  0  0  0  0  0  0  0
   -2.1093   -0.9422    0.0000 C   0  0  0  0  0  0  0  0  0  0  0  0
   -1.5306    1.5906    0.0000 C   0  0  0  0  0  0  0  0  0  0  0  0
   -2.5511    0.4913    0.0000 C   0  0  0  0  0  0  0  0  0  0  0  0
    5.4096    3.7573    0.0000 C   0  0  0  0  0  0  0  0  0  0  0  0
    7.4880    2.1984    0.0000 C   0  0  0  0  0  0  0  0  0  0  0  0
    6.3096    4.9573    0.0000 C   0  0  0  0  0  0  0  0  0  0  0  0
    8.3881    3.3984    0.0000 C   0  0  0  0  0  0  0  0  0  0  0  0
    7.7989    4.7778    0.0000 C   0  0  0  0  0  0  0  0  0  0  0  0
  1  9  1  0  0  0  0
  1 11  1  0  0  0  0
  2 12  2  0  0  0  0
  3  6  1  0  0  0  0
  3  8  1  0  0  0  0
  3 12  1  0  0  0  0
  4  8  2  0  0  0  0
  4 13  1  0  0  0  0
  5  9  1  0  0  0  0
  5 12  1  0  0  0  0
  6 13  2  0  0  0  0
  7  8  1  0  0  0  0
  7  9  2  0  0  0  0
  7 10  1  0  0  0  0
 10 11  2  0  0  0  0
 10 14  1  0  0  0  0
 11 16  1  0  0  0  0
 13 15  1  0  0  0  0
 14 17  1  0  0  0  0
 15 19  2  0  0  0  0
 15 20  1  0  0  0  0
 16 18  1  0  0  0  0
 17 18  1  0  0  0  0
 19 21  1  0  0  0  0
 20 22  2  0  0  0  0
 21 23  2  0  0  0  0
 22 23  1  0  0  0  0
M  END
> <Value>
5.899998417198648

> <Relation>
<

> <SourceURI>
mol:CHEMBL2007592

$$$$

Generated by Molecular Materials Informatics

 32 36  0  0  0  0  0  0  0  0999 V2000
    0.7929    4.1322    0.0000 S   0  0  0  0  0  0  0  0  0  0  0  0
   -3.9191   -8.5929    0.0000 F   0  0  0  0  0  0  0  0  0  0  0  0
    4.2685    8.2270    0.0000 O   0  0  0  0  0  0  0  0  0  0  0  0
   -3.5322   -3.1983    0.0000 O   0  0  0  0  0  0  0  0  0  0  0  0
    4.8176    2.1686    0.0000 N   0  0  0  0  0  0  0  0  0  0  0  0
    3.5185   -0.0814    0.0000 N   0  0  0  0  0  0  0  0  0  0  0  0
   -1.0613   -4.0012    0.0000 N   0  0  0  0  0  0  0  0  0  0  0  0
   -2.9920   -5.7396    0.0000 N   0  0  0  0  0  0  0  0  0  0  0  0
    2.2195    2.1686    0.0000 C   0  0  0  0  0  0  0  0  0  0  0  0
    2.2195    3.6686    0.0000 C   0  0  0  0  0  0  0  0  0  0  0  0
    0.7929    1.7051    0.0000 C   0  0  0  0  0  0  0  0  0  0  0  0
    3.5185    4.4186    0.0000 C   0  0  0  0  0  0  0  0  0  0  0  0
    3.5185    1.4186    0.0000 C   0  0  0  0  0  0  0  0  0  0  0  0
    0.3295    0.2786    0.0000 C   0  0  0  0  0  0  0  0  0  0  0  0
   -0.0887    2.9186    0.0000 C   0  0  0  0  0  0  0  0  0  0  0  0
    3.5185    5.9186    0.0000 C   0  0  0  0  0  0  0  0  0  0  0  0
    4.8176    3.6686    0.0000 C   0  0  0  0  0  0  0  0  0  0  0  0
    1.3331   -0.8361    0.0000 C   0  0  0  0  0  0  0  0  0  0  0  0
   -1.1378   -0.0332    0.0000 C   0  0  0  0  0  0  0  0  0  0  0  0
    4.7320    6.8004    0.0000 C   0  0  0  0  0  0  0  0  0  0  0  0
    2.3049    6.8004    0.0000 C   0  0  0  0  0  0  0  0  0  0  0  0
   -0.5976   -2.5747    0.0000 C   0  0  0  0  0  0  0  0  0  0  0  0
    0.8695   -2.2627    0.0000 C   0  0  0  0  0  0  0  0  0  0  0  0
   -1.6015   -1.4599    0.0000 C   0  0  0  0  0  0  0  0  0  0  0  0
    2.7685    8.2270    0.0000 C   0  0  0  0  0  0  0  0  0  0  0  0
   -2.5284   -4.3130    0.0000 C   0  0  0  0  0  0  0  0  0  0  0  0
   -4.4591   -6.0516    0.0000 C   0  0  0  0  0  0  0  0  0  0  0  0
   -4.9227   -7.4781    0.0000 C   0  0  0  0  0  0  0  0  0  0  0  0
   -5.4629   -4.9369    0.0000 C   0  0  0  0  0  0  0  0  0  0  0  0
   -6.3900   -7.7899    0.0000 C   0  0  0  0  0  0  0  0  0  0  0  0
   -6.9302   -5.2487    0.0000 C   0  0  0  0  0  0  0  0  0  0  0  0
   -7.3936   -6.6752    0.0000 C   0  0  0  0  0  0  0  0  0  0  0  0
  1 10  1  0  0  0  0
  1 15  1  0  0  0  0
  2 28  1  0  0  0  0
  3 20  1  0  0  0  0
  3 25  1  0  0  0  0
  4 26  2  0  0  0  0
  5 13  2  0  0  0  0
  5 17  1  0  0  0  0
  6 13  1  0  0  0  0
  7 22  1  0  0  0  0
  7 26  1  0  0  0  0
  8 26  1  0  0  0  0
  8 27  1  0  0  0  0
  9 10  2  0  0  0  0
  9 11  1  0  0  0  0
  9 13  1  0  0  0  0
 10 12  1  0  0  0  0
 11 14  1  0  0  0  0
 11 15  2  0  0  0  0
 12 16  1  0  0  0  0
 12 17  2  0  0  0  0
 14 18  2  0  0  0  0
 14 19  1  0  0  0  0
 16 20  2  0  0  0  0
 16 21  1  0  0  0  0
 18 23  1  0  0  0  0
 19 24  2  0  0  0  0
 21 25  2  0  0  0  0
 22 23  2  0  0  0  0
 22 24  1  0  0  0  0
 27 28  1  0  0  0  0
 27 29  2  0  0  0  0
 28 30  2  0  0  0  0
 29 31  1  0  0  0  0
 30 32  1  0  0  0  0
 31 32  2  0  0  0  0
M  END
> <Value>
5.899998417198648

> <Relation>
<

> <SourceURI>
mol:CHEMBL1965570

$$$$

Generated by Molecular Materials Informatics

 24 27  0  0  0  0  0  0  0  0999 V2000
   -8.7007    1.8807    0.0000 O   0  0  0  0  0  0  0  0  0  0  0  0
   -4.2007   -0.7173    0.0000 O   0  0  0  0  0  0  0  0  0  0  0  0
   -4.2007    4.4787    0.0000 O   0  0  0  0  0  0  0  0  0  0  0  0
   -6.4507   -2.0164    0.0000 O   0  0  0  0  0  0  0  0  0  0  0  0
   -1.8189    0.6672    0.0000 N   0  0  0  0  0  0  0  0  0  0  0  0
   -1.8189    3.0942    0.0000 N   0  0  0  0  0  0  0  0  0  0  0  0
   -4.2007    1.8807    0.0000 C   0  0  0  0  0  0  0  0  0  0  0  0
   -6.4507    0.5816    0.0000 C   0  0  0  0  0  0  0  0  0  0  0  0
   -4.9507    0.5816    0.0000 C   0  0  0  0  0  0  0  0  0  0  0  0
   -7.2007    1.8807    0.0000 C   0  0  0  0  0  0  0  0  0  0  0  0
   -2.7007    1.8807    0.0000 C   0  0  0  0  0  0  0  0  0  0  0  0
   -4.9507    3.1798    0.0000 C   0  0  0  0  0  0  0  0  0  0  0  0
   -7.2007   -0.7173    0.0000 C   0  0  0  0  0  0  0  0  0  0  0  0
   -6.4507    3.1798    0.0000 C   0  0  0  0  0  0  0  0  0  0  0  0
   -0.3923    1.1307    0.0000 C   0  0  0  0  0  0  0  0  0  0  0  0
   -0.3923    2.6307    0.0000 C   0  0  0  0  0  0  0  0  0  0  0  0
   -9.4507    0.5816    0.0000 C   0  0  0  0  0  0  0  0  0  0  0  0
   -8.7007   -0.7173    0.0000 C   0  0  0  0  0  0  0  0  0  0  0  0
    0.9068    0.3807    0.0000 C   0  0  0  0  0  0  0  0  0  0  0  0
    0.9068    3.3807    0.0000 C   0  0  0  0  0  0  0  0  0  0  0  0
    2.2057    1.1307    0.0000 C   0  0  0  0  0  0  0  0  0  0  0  0
    2.2057    2.6307    0.0000 C   0  0  0  0  0  0  0  0  0  0  0  0
   -4.9507   -2.0164    0.0000 C   0  0  0  0  0  0  0  0  0  0  0  0
  -10.9507    0.5816    0.0000 C   0  0  0  0  0  0  0  0  0  0  0  0
  1 10  1  0  0  0  0
  1 17  1  0  0  0  0
  2  9  1  0  0  0  0
  2 23  1  0  0  0  0
  3 12  1  0  0  0  0
  4 13  2  0  0  0  0
  5 11  2  0  0  0  0
  5 15  1  0  0  0  0
  6 11  1  0  0  0  0
  6 16  1  0  0  0  0
  7  9  1  0  0  0  0
  7 11  1  0  0  0  0
  7 12  2  0  0  0  0
  8  9  2  0  0  0  0
  8 10  1  0  0  0  0
  8 13  1  0  0  0  0
 10 14  2  0  0  0  0
 12 14  1  0  0  0  0
 13 18  1  0  0  0  0
 15 16  1  0  0  0  0
 15 19  2  0  0  0  0
 16 20  2  0  0  0  0
 17 18  2  0  0  0  0
 17 24  1  0  0  0  0
 19 21  1  0  0  0  0
 20 22  1  0  0  0  0
 21 22  2  0  0  0  0
M  END
> <Value>
5.59999938302362

> <Relation>
=

> <SourceURI>
mol:CHEMBL1972355

$$$$

Generated by Molecular Materials Informatics

 30 32  0  0  0  0  0  0  0  0999 V2000
   -9.4829    2.9812    0.0000 Cl  0  0  0  0  0  0  0  0  0  0  0  0
    0.9093    5.9812    0.0000 F   0  0  0  0  0  0  0  0  0  0  0  0
    0.3602    8.0302    0.0000 F   0  0  0  0  0  0  0  0  0  0  0  0
   -1.1398    5.4321    0.0000 F   0  0  0  0  0  0  0  0  0  0  0  0
   -5.5859    9.7311    0.0000 F   0  0  0  0  0  0  0  0  0  0  0  0
   -4.2868    4.4812    0.0000 O   0  0  0  0  0  0  0  0  0  0  0  0
   -6.8849   -6.0186    0.0000 O   0  0  0  0  0  0  0  0  0  0  0  0
   -5.5859    6.7312    0.0000 N   0  0  0  0  0  0  0  0  0  0  0  0
   -6.8849    4.4812    0.0000 N   0  0  0  0  0  0  0  0  0  0  0  0
   -5.5859   -2.2687    0.0000 N   0  0  0  0  0  0  0  0  0  0  0  0
   -5.5859   -3.7687    0.0000 N   0  0  0  0  0  0  0  0  0  0  0  0
   -6.8849   -0.0187    0.0000 C   0  0  0  0  0  0  0  0  0  0  0  0
   -6.8849   -1.5187    0.0000 C   0  0  0  0  0  0  0  0  0  0  0  0
   -1.6888    7.4812    0.0000 C   0  0  0  0  0  0  0  0  0  0  0  0
   -4.2868    7.4812    0.0000 C   0  0  0  0  0  0  0  0  0  0  0  0
   -6.8849    2.9812    0.0000 C   0  0  0  0  0  0  0  0  0  0  0  0
   -0.3898    6.7312    0.0000 C   0  0  0  0  0  0  0  0  0  0  0  0
   -8.1838    2.2312    0.0000 C   0  0  0  0  0  0  0  0  0  0  0  0
   -2.9879    6.7312    0.0000 C   0  0  0  0  0  0  0  0  0  0  0  0
   -4.2868    8.9811    0.0000 C   0  0  0  0  0  0  0  0  0  0  0  0
   -8.1838    0.7313    0.0000 C   0  0  0  0  0  0  0  0  0  0  0  0
   -8.1838   -2.2687    0.0000 C   0  0  0  0  0  0  0  0  0  0  0  0
   -5.5859    0.7313    0.0000 C   0  0  0  0  0  0  0  0  0  0  0  0
   -1.6888    8.9811    0.0000 C   0  0  0  0  0  0  0  0  0  0  0  0
   -5.5859    5.2312    0.0000 C   0  0  0  0  0  0  0  0  0  0  0  0
   -5.5859    2.2312    0.0000 C   0  0  0  0  0  0  0  0  0  0  0  0
   -2.9879    9.7311    0.0000 C   0  0  0  0  0  0  0  0  0  0  0  0
   -8.1838   -3.7687    0.0000 C   0  0  0  0  0  0  0  0  0  0  0  0
   -6.8849   -4.5187    0.0000 C   0  0  0  0  0  0  0  0  0  0  0  0
   -9.4829   -1.5187    0.0000 C   0  0  0  0  0  0  0  0  0  0  0  0
  1 18  1  0  0  0  0
  2 17  1  0  0  0  0
  3 17  1  0  0  0  0
  4 17  1  0  0  0  0
  5 20  1  0  0  0  0
  6 25  2  0  0  0  0
  7 29  2  0  0  0  0
  8 15  1  0  0  0  0
  8 25  1  0  0  0  0
  9 16  1  0  0  0  0
  9 25  1  0  0  0  0
 10 11  1  0  0  0  0
 10 13  2  0  0  0  0
 11 29  1  0  0  0  0
 12 13  1  0  0  0  0
 12 21  1  0  0  0  0
 12 23  2  0  0  0  0
 13 22  1  0  0  0  0
 14 17  1  0  0  0  0
 14 19  1  0  0  0  0
 14 24  2  0  0  0  0
 15 19  2  0  0  0  0
 15 20  1  0  0  0  0
 16 18  1  0  0  0  0
 16 26  2  0  0  0  0
 18 21  2  0  0  0  0
 20 27  2  0  0  0  0
 22 28  2  0  0  0  0
 22 30  1  0  0  0  0
 23 26  1  0  0  0  0
 24 27  1  0  0  0  0
 28 29  1  0  0  0  0
M  END
> <Value>
5.300000202445418

> <Relation>
<

> <SourceURI>
mol:CHEMBL1997892

$$$$

Generated by Molecular Materials Informatics

 18 20  0  0  0  0  0  0  0  0999 V2000
    6.2140   -3.4988    0.0000 O   0  0  0  0  0  0  0  0  0  0  0  0
    3.3697    1.0453    0.0000 N   0  0  0  0  0  0  0  0  0  0  0  0
    4.7400    1.6555    0.0000 N   0  0  0  0  0  0  0  0  0  0  0  0
    5.7437    0.5408    0.0000 N   0  0  0  0  0  0  0  0  0  0  0  0
   -1.9540    3.7590    0.0000 N   0  0  0  0  0  0  0  0  0  0  0  0
   -2.8356    2.5453    0.0000 N   0  0  0  0  0  0  0  0  0  0  0  0
    2.0708    1.7953    0.0000 C   0  0  0  0  0  0  0  0  0  0  0  0
    4.9937   -0.7583    0.0000 C   0  0  0  0  0  0  0  0  0  0  0  0
    3.5266   -0.4463    0.0000 C   0  0  0  0  0  0  0  0  0  0  0  0
    5.6038   -2.1285    0.0000 C   0  0  0  0  0  0  0  0  0  0  0  0
   -0.5274    1.7953    0.0000 C   0  0  0  0  0  0  0  0  0  0  0  0
   -0.5274    3.2953    0.0000 C   0  0  0  0  0  0  0  0  0  0  0  0
    0.7717    1.0453    0.0000 C   0  0  0  0  0  0  0  0  0  0  0  0
    2.0708    3.2953    0.0000 C   0  0  0  0  0  0  0  0  0  0  0  0
    0.7717    4.0453    0.0000 C   0  0  0  0  0  0  0  0  0  0  0  0
   -1.9540    1.3319    0.0000 C   0  0  0  0  0  0  0  0  0  0  0  0
    6.9742   -1.5185    0.0000 C   0  0  0  0  0  0  0  0  0  0  0  0
    4.2335   -2.7387    0.0000 C   0  0  0  0  0  0  0  0  0  0  0  0
  1 10  1  0  0  0  0
  2  3  1  0  0  0  0
  2  7  1  0  0  0  0
  2  9  1  0  0  0  0
  3  4  2  0  0  0  0
  4  8  1  0  0  0  0
  5  6  1  0  0  0  0
  5 12  1  0  0  0  0
  6 16  2  0  0  0  0
  7 13  1  0  0  0  0
  7 14  2  0  0  0  0
  8  9  2  0  0  0  0
  8 10  1  0  0  0  0
 10 17  1  0  0  0  0
 10 18  1  0  0  0  0
 11 12  1  0  0  0  0
 11 13  2  0  0  0  0
 11 16  1  0  0  0  0
 12 15  2  0  0  0  0
 14 15  1  0  0  0  0
M  END
> <Value>
5.700000503883016

> <Relation>
=

> <SourceURI>
mol:CHEMBL2001641

$$$$

Generated by Molecular Materials Informatics

 24 27  0  0  0  0  0  0  0  0999 V2000
   -4.6828    3.0608    0.0000 Cl  0  0  0  0  0  0  0  0  0  0  0  0
   -3.6026    8.1435    0.0000 O   0  0  0  0  0  0  0  0  0  0  0  0
   -0.2811    2.1253    0.0000 N   0  0  0  0  0  0  0  0  0  0  0  0
   -0.8213   -2.8430    0.0000 N   0  0  0  0  0  0  0  0  0  0  0  0
   -2.7520    1.3224    0.0000 N   0  0  0  0  0  0  0  0  0  0  0  0
    1.9043   -3.1296    0.0000 N   0  0  0  0  0  0  0  0  0  0  0  0
    0.2591    4.6666    0.0000 N   0  0  0  0  0  0  0  0  0  0  0  0
   -0.8213   -0.4161    0.0000 C   0  0  0  0  0  0  0  0  0  0  0  0
    0.6053   -0.8796    0.0000 C   0  0  0  0  0  0  0  0  0  0  0  0
   -1.2849    1.0106    0.0000 C   0  0  0  0  0  0  0  0  0  0  0  0
    0.6053   -2.3796    0.0000 C   0  0  0  0  0  0  0  0  0  0  0  0
   -1.7029   -1.6296    0.0000 C   0  0  0  0  0  0  0  0  0  0  0  0
   -0.7448    3.5519    0.0000 C   0  0  0  0  0  0  0  0  0  0  0  0
    1.9043   -0.1296    0.0000 C   0  0  0  0  0  0  0  0  0  0  0  0
   -3.2157    2.7490    0.0000 C   0  0  0  0  0  0  0  0  0  0  0  0
   -2.2118    3.8637    0.0000 C   0  0  0  0  0  0  0  0  0  0  0  0
   -0.2046    6.0932    0.0000 C   0  0  0  0  0  0  0  0  0  0  0  0
    3.2033   -0.8796    0.0000 C   0  0  0  0  0  0  0  0  0  0  0  0
    3.2033   -2.3796    0.0000 C   0  0  0  0  0  0  0  0  0  0  0  0
   -1.6717    6.4050    0.0000 C   0  0  0  0  0  0  0  0  0  0  0  0
    0.7993    7.2079    0.0000 C   0  0  0  0  0  0  0  0  0  0  0  0
   -2.1353    7.8315    0.0000 C   0  0  0  0  0  0  0  0  0  0  0  0
    0.3356    8.6345    0.0000 C   0  0  0  0  0  0  0  0  0  0  0  0
   -1.1317    8.9463    0.0000 C   0  0  0  0  0  0  0  0  0  0  0  0
  1 15  1  0  0  0  0
  2 22  1  0  0  0  0
  3 10  2  0  0  0  0
  3 13  1  0  0  0  0
  4 11  1  0  0  0  0
  4 12  1  0  0  0  0
  5 10  1  0  0  0  0
  5 15  2  0  0  0  0
  6 11  2  0  0  0  0
  6 19  1  0  0  0  0
  7 13  1  0  0  0  0
  7 17  1  0  0  0  0
  8  9  1  0  0  0  0
  8 10  1  0  0  0  0
  8 12  2  0  0  0  0
  9 11  1  0  0  0  0
  9 14  2  0  0  0  0
 13 16  2  0  0  0  0
 14 18  1  0  0  0  0
 15 16  1  0  0  0  0
 17 20  1  0  0  0  0
 17 21  1  0  0  0  0
 18 19  2  0  0  0  0
 20 22  1  0  0  0  0
 21 23  1  0  0  0  0
 22 24  1  0  0  0  0
 23 24  1  0  0  0  0
M  END
> <Value>
7.100015437450609

> <Relation>
=

> <SourceURI>
mol:CHEMBL1976936

$$$$

Generated by Molecular Materials Informatics

 23 25  0  0  0  0  0  0  0  0999 V2000
   -0.2685   -9.7351    0.0000 Br  0  0  0  0  0  0  0  0  0  0  0  0
    3.2455   -1.4571    0.0000 S   0  0  0  0  0  0  0  0  0  0  0  0
    7.5289   -4.9972    0.0000 O   0  0  0  0  0  0  0  0  0  0  0  0
    5.6985   -9.1080    0.0000 O   0  0  0  0  0  0  0  0  0  0  0  0
    5.4269   -6.5243    0.0000 N   0  0  0  0  0  0  0  0  0  0  0  0
    6.3756   -1.1998    0.0000 N   0  0  0  0  0  0  0  0  0  0  0  0
    3.6637   -4.0972    0.0000 C   0  0  0  0  0  0  0  0  0  0  0  0
    3.9353   -6.6810    0.0000 C   0  0  0  0  0  0  0  0  0  0  0  0
    5.1554   -3.9405    0.0000 C   0  0  0  0  0  0  0  0  0  0  0  0
    3.3251   -8.0513    0.0000 C   0  0  0  0  0  0  0  0  0  0  0  0
    2.7820   -2.8838    0.0000 C   0  0  0  0  0  0  0  0  0  0  0  0
    3.0535   -5.4675    0.0000 C   0  0  0  0  0  0  0  0  0  0  0  0
    6.0371   -5.1539    0.0000 C   0  0  0  0  0  0  0  0  0  0  0  0
    4.2067   -9.2648    0.0000 C   0  0  0  0  0  0  0  0  0  0  0  0
    1.8333   -8.2080    0.0000 C   0  0  0  0  0  0  0  0  0  0  0  0
    1.2821   -2.8838    0.0000 C   0  0  0  0  0  0  0  0  0  0  0  0
    5.7654   -2.5701    0.0000 C   0  0  0  0  0  0  0  0  0  0  0  0
    2.0320   -0.5755    0.0000 C   0  0  0  0  0  0  0  0  0  0  0  0
    1.2233   -9.5784    0.0000 C   0  0  0  0  0  0  0  0  0  0  0  0
    0.8184   -1.4571    0.0000 C   0  0  0  0  0  0  0  0  0  0  0  0
    3.5967  -10.6351    0.0000 C   0  0  0  0  0  0  0  0  0  0  0  0
    2.1050  -10.7918    0.0000 C   0  0  0  0  0  0  0  0  0  0  0  0
    2.0320    0.9245    0.0000 C   0  0  0  0  0  0  0  0  0  0  0  0
  1 19  1  0  0  0  0
  2 11  1  0  0  0  0
  2 18  1  0  0  0  0
  3 13  2  0  0  0  0
  4 14  1  0  0  0  0
  5  8  1  0  0  0  0
  5 13  1  0  0  0  0
  6 17  3  0  0  0  0
  7  9  2  0  0  0  0
  7 11  1  0  0  0  0
  7 12  1  0  0  0  0
  8 10  1  0  0  0  0
  8 12  2  0  0  0  0
  9 13  1  0  0  0  0
  9 17  1  0  0  0  0
 10 14  1  0  0  0  0
 10 15  2  0  0  0  0
 11 16  2  0  0  0  0
 14 21  2  0  0  0  0
 15 19  1  0  0  0  0
 16 20  1  0  0  0  0
 18 20  2  0  0  0  0
 18 23  1  0  0  0  0
 19 22  2  0  0  0  0
 21 22  1  0  0  0  0
M  END
> <Value>
5.300000202445418

> <Relation>
<

> <SourceURI>
mol:CHEMBL1997193

$$$$

Generated by Molecular Materials Informatics

 30 31  0  0  0  0  0  0  0  0999 V2000
    2.4777  -10.0847    0.0000 C   0  0  0  0  0  0  0  0  0  0  0  0
    2.4754  -11.5894    0.0000 C   0  0  0  0  0  0  0  0  0  0  0  0
    3.7719  -12.3403    0.0000 N   0  0  0  0  0  0  0  0  0  0  0  0
    5.0797  -11.5887    0.0000 C   0  0  0  0  0  0  0  0  0  0  0  0
    5.0741  -10.0774    0.0000 C   0  0  0  0  0  0  0  0  0  0  0  0
    3.7683   -9.3342    0.0000 C   0  0  0  0  0  0  0  0  0  0  0  0
    1.1752  -12.3377    0.0000 N   0  0  0  0  0  0  0  0  0  0  0  0
    6.3693   -9.3209    0.0000 C   0  0  0  0  0  0  0  0  0  0  0  0
    7.6558   -8.5596    0.0000 N   0  0  0  0  0  0  0  0  0  0  0  0
    6.3795  -12.3374    0.0000 O   0  0  0  0  0  0  0  0  0  0  0  0
    7.6780  -11.5863    0.0000 C   0  0  0  0  0  0  0  0  0  0  0  0
    8.9776  -12.3350    0.0000 C   0  0  0  0  0  0  0  0  0  0  0  0
    3.7612   -7.8340    0.0000 N   0  0  0  0  0  0  0  0  0  0  0  0
   -0.1227  -11.5858    0.0000 C   0  0  0  0  0  0  0  0  0  0  0  0
   -0.1206  -10.0858    0.0000 O   0  0  0  0  0  0  0  0  0  0  0  0
   -1.4229  -12.3339    0.0000 C   0  0  0  0  0  0  0  0  0  0  0  0
   -2.7209  -11.5819    0.0000 C   0  0  0  0  0  0  0  0  0  0  0  0
   -2.7149  -10.0849    0.0000 C   0  0  0  0  0  0  0  0  0  0  0  0
   -4.0114   -9.3331    0.0000 C   0  0  0  0  0  0  0  0  0  0  0  0
   -5.3134  -10.0814    0.0000 C   0  0  0  0  0  0  0  0  0  0  0  0
   -5.3108  -11.5892    0.0000 C   0  0  0  0  0  0  0  0  0  0  0  0
   -4.0132  -12.3343    0.0000 C   0  0  0  0  0  0  0  0  0  0  0  0
   -4.0088  -13.8343    0.0000 O   0  0  0  0  0  0  0  0  0  0  0  0
   -5.3055  -14.5882    0.0000 C   0  0  0  0  0  0  0  0  0  0  0  0
   -4.0085   -7.8331    0.0000 O   0  0  0  0  0  0  0  0  0  0  0  0
   -2.7080   -7.0857    0.0000 C   0  0  0  0  0  0  0  0  0  0  0  0
   -6.6124   -9.3313    0.0000 S   0  0  0  0  0  0  0  0  0  0  0  0
   -5.8781   -8.0262    0.0000 O   0  0  0  0  0  0  0  0  0  0  0  0
   -7.3781  -10.6181    0.0000 O   0  0  0  0  0  0  0  0  0  0  0  0
   -7.9113   -8.5811    0.0000 C   0  0  0  0  0  0  0  0  0  0  0  0
 14 15  2  0  0  0  0
  3  4  2  0  0  0  0
 14 16  1  0  0  0  0
  5  8  1  0  0  0  0
 16 17  1  0  0  0  0
 17 18  2  0  0  0  0
  8  9  3  0  0  0  0
 18 19  1  0  0  0  0
  4  5  1  0  0  0  0
 19 20  2  0  0  0  0
  4 10  1  0  0  0  0
 20 21  1  0  0  0  0
  2  3  1  0  0  0  0
 21 22  2  0  0  0  0
 22 17  1  0  0  0  0
 10 11  1  0  0  0  0
 22 23  1  0  0  0  0
  5  6  2  0  0  0  0
 23 24  1  0  0  0  0
 11 12  1  0  0  0  0
 19 25  1  0  0  0  0
  6  1  1  0  0  0  0
 25 26  1  0  0  0  0
  6 13  1  0  0  0  0
 20 27  1  0  0  0  0
  1  2  2  0  0  0  0
 27 28  2  0  0  0  0
  7 14  1  0  0  0  0
 27 29  2  0  0  0  0
  2  7  1  0  0  0  0
 27 30  1  0  0  0  0
M  END
> <Value>
5.899998417198648

> <Relation>
<

> <SourceURI>
mol:CHEMBL210963

$$$$

Generated by Molecular Materials Informatics

 35 38  0  0  0  0  0  0  0  0999 V2000
    0.4334   -5.1356    0.0000 O   0  0  0  0  0  0  0  0  0  0  0  0
    3.0316   -3.6356    0.0000 O   0  0  0  0  0  0  0  0  0  0  0  0
   -7.0117    0.8359    0.0000 O   0  0  0  0  0  0  0  0  0  0  0  0
   -9.0620    4.2338    0.0000 O   0  0  0  0  0  0  0  0  0  0  0  0
   -9.8647    1.7630    0.0000 O   0  0  0  0  0  0  0  0  0  0  0  0
   -3.5348   -3.0255    0.0000 N   0  0  0  0  0  0  0  0  0  0  0  0
   -4.5385   -4.1402    0.0000 N   0  0  0  0  0  0  0  0  0  0  0  0
   -0.8654   -2.8857    0.0000 N   0  0  0  0  0  0  0  0  0  0  0  0
   -2.1645   -3.6356    0.0000 C   0  0  0  0  0  0  0  0  0  0  0  0
   -3.7885   -5.4392    0.0000 C   0  0  0  0  0  0  0  0  0  0  0  0
   -3.8467   -1.5584    0.0000 C   0  0  0  0  0  0  0  0  0  0  0  0
   -2.3212   -5.1274    0.0000 C   0  0  0  0  0  0  0  0  0  0  0  0
   -4.3986   -6.8096    0.0000 C   0  0  0  0  0  0  0  0  0  0  0  0
    1.7325   -1.3857    0.0000 C   0  0  0  0  0  0  0  0  0  0  0  0
    0.4334   -3.6356    0.0000 C   0  0  0  0  0  0  0  0  0  0  0  0
    1.7325   -2.8857    0.0000 C   0  0  0  0  0  0  0  0  0  0  0  0
    3.0316   -0.6357    0.0000 C   0  0  0  0  0  0  0  0  0  0  0  0
   -5.2732   -1.0948    0.0000 C   0  0  0  0  0  0  0  0  0  0  0  0
    3.0316    0.8642    0.0000 C   0  0  0  0  0  0  0  0  0  0  0  0
   -2.7319   -0.5546    0.0000 C   0  0  0  0  0  0  0  0  0  0  0  0
   -5.5852    0.3723    0.0000 C   0  0  0  0  0  0  0  0  0  0  0  0
    0.4334   -0.6357    0.0000 C   0  0  0  0  0  0  0  0  0  0  0  0
    4.3304   -1.3857    0.0000 C   0  0  0  0  0  0  0  0  0  0  0  0
    1.7325    1.6142    0.0000 C   0  0  0  0  0  0  0  0  0  0  0  0
   -5.0086   -8.1799    0.0000 C   0  0  0  0  0  0  0  0  0  0  0  0
   -3.0283   -7.4196    0.0000 C   0  0  0  0  0  0  0  0  0  0  0  0
   -5.7690   -6.1994    0.0000 C   0  0  0  0  0  0  0  0  0  0  0  0
   -3.0438    0.9124    0.0000 C   0  0  0  0  0  0  0  0  0  0  0  0
   -4.4705    1.3761    0.0000 C   0  0  0  0  0  0  0  0  0  0  0  0
    0.4334    0.8642    0.0000 C   0  0  0  0  0  0  0  0  0  0  0  0
    4.3304    1.6142    0.0000 C   0  0  0  0  0  0  0  0  0  0  0  0
    5.6295   -0.6357    0.0000 C   0  0  0  0  0  0  0  0  0  0  0  0
    5.6295    0.8642    0.0000 C   0  0  0  0  0  0  0  0  0  0  0  0
   -7.3235    2.3031    0.0000 C   0  0  0  0  0  0  0  0  0  0  0  0
   -8.7500    2.7666    0.0000 C   0  0  0  0  0  0  0  0  0  0  0  0
  1 15  2  0  0  0  0
  2 16  2  0  0  0  0
  3 21  1  0  0  0  0
  3 34  1  0  0  0  0
  4 35  2  0  0  0  0
  5 35  1  0  0  0  0
  6  7  1  0  0  0  0
  6  9  1  0  0  0  0
  6 11  1  0  0  0  0
  7 10  2  0  0  0  0
  8  9  1  0  0  0  0
  8 15  1  0  0  0  0
  9 12  2  0  0  0  0
 10 12  1  0  0  0  0
 10 13  1  0  0  0  0
 11 18  1  0  0  0  0
 11 20  2  0  0  0  0
 13 25  1  0  0  0  0
 13 26  1  0  0  0  0
 13 27  1  0  0  0  0
 14 16  1  0  0  0  0
 14 17  1  0  0  0  0
 14 22  2  0  0  0  0
 15 16  1  0  0  0  0
 17 19  1  0  0  0  0
 17 23  2  0  0  0  0
 18 21  2  0  0  0  0
 19 24  1  0  0  0  0
 19 31  2  0  0  0  0
 20 28  1  0  0  0  0
 21 29  1  0  0  0  0
 22 30  1  0  0  0  0
 23 32  1  0  0  0  0
 24 30  2  0  0  0  0
 28 29  2  0  0  0  0
 31 33  1  0  0  0  0
 32 33  2  0  0  0  0
 34 35  1  0  0  0  0
M  END
> <Value>
5.300000202445418

> <Relation>
<

> <SourceURI>
mol:CHEMBL1964902

$$$$

Generated by Molecular Materials Informatics

 22 24  0  0  0  0  0  0  0  0999 V2000
    8.4372  -29.4982    0.0000 C   0  0  0  0  0  0  0  0  0  0  0  0
    9.7450  -28.7464    0.0000 N   0  0  0  0  0  0  0  0  0  0  0  0
    9.7394  -27.2355    0.0000 C   0  0  0  0  0  0  0  0  0  0  0  0
    8.4337  -26.4922    0.0000 C   0  0  0  0  0  0  0  0  0  0  0  0
    7.1408  -28.7475    0.0000 C   0  0  0  0  0  0  0  0  0  0  0  0
    7.1452  -27.2460    0.0000 C   0  0  0  0  0  0  0  0  0  0  0  0
    5.8494  -26.4946    0.0000 C   0  0  0  0  0  0  0  0  0  0  0  0
    4.5481  -27.2428    0.0000 C   0  0  0  0  0  0  0  0  0  0  0  0
    4.5509  -28.7500    0.0000 C   0  0  0  0  0  0  0  0  0  0  0  0
    5.8481  -29.4944    0.0000 C   0  0  0  0  0  0  0  0  0  0  0  0
    8.4247  -24.9922    0.0000 C   0  0  0  0  0  0  0  0  0  0  0  0
    5.8521  -24.9946    0.0000 S   0  0  0  0  0  0  0  0  0  0  0  0
    4.5543  -24.2424    0.0000 N   0  0  0  0  0  0  0  0  0  0  0  0
    7.1379  -25.7430    0.0000 O   0  0  0  0  0  0  0  0  0  0  0  0
    6.5879  -23.6930    0.0000 O   0  0  0  0  0  0  0  0  0  0  0  0
    1.3049  -23.2892    0.0000 C   0  0  0  0  0  0  0  0  0  0  0  0
    1.9158  -24.7122    0.0000 C   0  0  0  0  0  0  0  0  0  0  0  0
    3.3354  -25.0810    0.0000 C   0  0  0  0  0  0  0  0  0  0  0  0
    2.0452  -21.9703    0.0000 N   0  0  0  0  0  0  0  0  0  0  0  0
    3.5254  -21.7501    0.0000 C   0  0  0  0  0  0  0  0  0  0  0  0
    4.6680  -22.8148    0.0000 C   0  0  0  0  0  0  0  0  0  0  0  0
    6.0661  -22.2715    0.0000 C   0  0  0  0  0  0  0  0  0  0  0  0
  1  2  2  0  0  0  0
  4 11  1  0  0  0  0
  5  1  1  0  0  0  0
  7 12  1  0  0  0  0
  5  6  1  0  0  0  0
 12 13  1  0  0  0  0
  2  3  1  0  0  0  0
 12 14  2  0  0  0  0
  6  7  2  0  0  0  0
 12 15  2  0  0  0  0
  7  8  1  0  0  0  0
  3  4  2  0  0  0  0
  8  9  2  0  0  0  0
  4  6  1  0  0  0  0
  9 10  1  0  0  0  0
 16 17  1  0  0  0  0
 17 18  1  0  0  0  0
 16 19  1  0  0  0  0
 20 21  1  0  0  0  0
 21 13  1  0  0  0  0
 13 18  1  0  0  0  0
 19 20  1  0  0  0  0
 10  5  2  0  0  0  0
 21 22  1  0  0  0  0
M  END
> <Value>
5.899998417198648

> <Relation>
<

> <SourceURI>
mol:CHEMBL1082440

$$$$

Generated by Molecular Materials Informatics

 29 32  0  0  0  0  0  0  0  0999 V2000
    3.0329    0.2824    0.0000 C   0  0  0  0  0  0  0  0  0  0  0  0
    3.0232   -1.2150    0.0000 C   0  0  0  0  0  0  0  0  0  0  0  0
    4.3131   -1.9688    0.0000 C   0  0  0  0  0  0  0  0  0  0  0  0
    5.6137   -1.2272    0.0000 N   0  0  0  0  0  0  0  0  0  0  0  0
    5.6161    0.2759    0.0000 C   0  0  0  0  0  0  0  0  0  0  0  0
    4.3249    1.0230    0.0000 C   0  0  0  0  0  0  0  0  0  0  0  0
   -1.7328   -0.4179    0.0000 C   0  0  0  0  0  0  0  0  0  0  0  0
   -3.1844   -0.0224    0.0000 C   0  0  0  0  0  0  0  0  0  0  0  0
   -4.2488   -1.0808    0.0000 C   0  0  0  0  0  0  0  0  0  0  0  0
   -3.8638   -2.5347    0.0000 C   0  0  0  0  0  0  0  0  0  0  0  0
   -2.4048   -2.9244    0.0000 C   0  0  0  0  0  0  0  0  0  0  0  0
   -1.3468   -1.8633    0.0000 C   0  0  0  0  0  0  0  0  0  0  0  0
   -0.6581    0.6419    0.0000 C   0  0  0  0  0  0  0  0  0  0  0  0
    0.6829   -0.0301    0.0000 C   0  0  0  0  0  0  0  0  0  0  0  0
    1.7357    1.0401    0.0000 C   0  0  0  0  0  0  0  0  0  0  0  0
    1.0408    2.3711    0.0000 N   0  0  0  0  0  0  0  0  0  0  0  0
   -0.4391    2.1191    0.0000 N   0  0  0  0  0  0  0  0  0  0  0  0
   -0.5936   -3.7720    0.0000 C   0  0  0  0  0  0  0  0  0  0  0  0
    0.6987   -4.5226    0.0000 N   0  0  0  0  0  0  0  0  0  0  0  0
    1.9907   -3.7789    0.0000 C   0  0  0  0  0  0  0  0  0  0  0  0
    1.9931   -2.2850    0.0000 N   0  0  0  0  0  0  0  0  0  0  0  0
    0.6923   -1.5379    0.0000 C   0  0  0  0  0  0  0  0  0  0  0  0
   -0.5947   -2.2859    0.0000 C   0  0  0  0  0  0  0  0  0  0  0  0
    6.9085   -1.9763    0.0000 C   0  0  0  0  0  0  0  0  0  0  0  0
    6.9011   -3.4770    0.0000 C   0  0  0  0  0  0  0  0  0  0  0  0
    8.2046   -1.2185    0.0000 O   0  0  0  0  0  0  0  0  0  0  0  0
    8.1971   -4.2273    0.0000 O   0  0  0  0  0  0  0  0  0  0  0  0
   -3.5812    1.4344    0.0000 F   0  0  0  0  0  0  0  0  0  0  0  0
   -4.9380   -3.5907    0.0000 Cl  0  0  0  0  0  0  0  0  0  0  0  0
  7  8  2  0  0  0  0
 13 14  1  0  0  0  0
 15 16  1  0  0  0  0
 16 17  1  0  0  0  0
 17 13  2  0  0  0  0
  8  9  1  0  0  0  0
  4  5  1  0  0  0  0
 18 19  2  0  0  0  0
  9 10  2  0  0  0  0
 19 20  1  0  0  0  0
  2  3  1  0  0  0  0
 20 21  2  0  0  0  0
 10 11  1  0  0  0  0
 21 22  1  0  0  0  0
  5  6  1  0  0  0  0
 22 23  2  0  0  0  0
 23 18  1  0  0  0  0
 22 14  1  0  0  0  0
 15  1  1  0  0  0  0
 13  7  1  0  0  0  0
 11 12  2  0  0  0  0
  4 24  1  0  0  0  0
 12  7  1  0  0  0  0
 24 25  1  0  0  0  0
 14 15  2  0  0  0  0
 24 26  2  0  0  0  0
  6  1  1  0  0  0  0
 25 27  1  0  0  0  0
  1  2  1  0  0  0  0
  8 28  1  0  0  0  0
  3  4  1  0  0  0  0
 10 29  1  0  0  0  0
M  END
> <Value>
5.899998417198648

> <Relation>
<

> <SourceURI>
mol:CHEMBL1614705

$$$$

Generated by Molecular Materials Informatics

 22 24  0  0  0  0  0  0  0  0999 V2000
    0.8925    4.4240    0.0000 S   0  0  0  0  0  0  0  0  0  0  0  0
    3.6182   -4.2896    0.0000 S   0  0  0  0  0  0  0  0  0  0  0  0
    3.6182   -5.7896    0.0000 O   0  0  0  0  0  0  0  0  0  0  0  0
    5.1182   -4.2896    0.0000 O   0  0  0  0  0  0  0  0  0  0  0  0
   -2.2391    1.9115    0.0000 O   0  0  0  0  0  0  0  0  0  0  0  0
    4.9173    3.9604    0.0000 N   0  0  0  0  0  0  0  0  0  0  0  0
   -2.2391    4.5095    0.0000 N   0  0  0  0  0  0  0  0  0  0  0  0
    2.3191    2.4604    0.0000 C   0  0  0  0  0  0  0  0  0  0  0  0
    3.6182    1.7104    0.0000 C   0  0  0  0  0  0  0  0  0  0  0  0
    2.3191    3.9604    0.0000 C   0  0  0  0  0  0  0  0  0  0  0  0
    3.6182    0.2104    0.0000 C   0  0  0  0  0  0  0  0  0  0  0  0
    0.0109    3.2104    0.0000 C   0  0  0  0  0  0  0  0  0  0  0  0
    0.8925    1.9969    0.0000 C   0  0  0  0  0  0  0  0  0  0  0  0
    4.9173    2.4604    0.0000 C   0  0  0  0  0  0  0  0  0  0  0  0
    3.6182    4.7104    0.0000 C   0  0  0  0  0  0  0  0  0  0  0  0
    3.6182   -2.7896    0.0000 C   0  0  0  0  0  0  0  0  0  0  0  0
    4.9173   -0.5396    0.0000 C   0  0  0  0  0  0  0  0  0  0  0  0
    2.3191   -0.5396    0.0000 C   0  0  0  0  0  0  0  0  0  0  0  0
   -1.4891    3.2104    0.0000 C   0  0  0  0  0  0  0  0  0  0  0  0
    4.9173   -2.0396    0.0000 C   0  0  0  0  0  0  0  0  0  0  0  0
    2.3191   -2.0396    0.0000 C   0  0  0  0  0  0  0  0  0  0  0  0
    2.1182   -4.2896    0.0000 C   0  0  0  0  0  0  0  0  0  0  0  0
  1 10  1  0  0  0  0
  1 12  1  0  0  0  0
  2  3  2  0  0  0  0
  2  4  2  0  0  0  0
  2 16  1  0  0  0  0
  2 22  1  0  0  0  0
  5 19  2  0  0  0  0
  6 14  1  0  0  0  0
  6 15  2  0  0  0  0
  7 19  1  0  0  0  0
  8  9  1  0  0  0  0
  8 10  2  0  0  0  0
  8 13  1  0  0  0  0
  9 11  1  0  0  0  0
  9 14  2  0  0  0  0
 10 15  1  0  0  0  0
 11 17  2  0  0  0  0
 11 18  1  0  0  0  0
 12 13  2  0  0  0  0
 12 19  1  0  0  0  0
 16 20  2  0  0  0  0
 16 21  1  0  0  0  0
 17 20  1  0  0  0  0
 18 21  2  0  0  0  0
M  END
> <Value>
5.899998417198648

> <Relation>
<

> <SourceURI>
mol:CHEMBL1972362

$$$$

Generated by Molecular Materials Informatics

 24 26  0  0  0  0  0  0  0  0999 V2000
    3.3709   -1.8943    0.0000 S   0  0  0  0  0  0  0  0  0  0  0  0
    5.2809   -4.3777    0.0000 O   0  0  0  0  0  0  0  0  0  0  0  0
    4.6038  -12.2859    0.0000 O   0  0  0  0  0  0  0  0  0  0  0  0
    0.9438   -1.8943    0.0000 N   0  0  0  0  0  0  0  0  0  0  0  0
    3.1789   -5.9048    0.0000 N   0  0  0  0  0  0  0  0  0  0  0  0
    2.1574    3.4874    0.0000 N   0  0  0  0  0  0  0  0  0  0  0  0
    2.9074   -3.3210    0.0000 C   0  0  0  0  0  0  0  0  0  0  0  0
    2.1574   -1.0126    0.0000 C   0  0  0  0  0  0  0  0  0  0  0  0
    3.7890   -4.5344    0.0000 C   0  0  0  0  0  0  0  0  0  0  0  0
    2.1574    0.4874    0.0000 C   0  0  0  0  0  0  0  0  0  0  0  0
    1.4074   -3.3210    0.0000 C   0  0  0  0  0  0  0  0  0  0  0  0
    4.0607   -7.1182    0.0000 C   0  0  0  0  0  0  0  0  0  0  0  0
    3.4505   -8.4886    0.0000 C   0  0  0  0  0  0  0  0  0  0  0  0
    3.4563    1.2374    0.0000 C   0  0  0  0  0  0  0  0  0  0  0  0
    0.8583    1.2374    0.0000 C   0  0  0  0  0  0  0  0  0  0  0  0
    4.3321   -9.7021    0.0000 C   0  0  0  0  0  0  0  0  0  0  0  0
    3.7221  -11.0724    0.0000 C   0  0  0  0  0  0  0  0  0  0  0  0
    1.9587   -8.6453    0.0000 C   0  0  0  0  0  0  0  0  0  0  0  0
    3.4563    2.7374    0.0000 C   0  0  0  0  0  0  0  0  0  0  0  0
    0.8583    2.7374    0.0000 C   0  0  0  0  0  0  0  0  0  0  0  0
    2.2303  -11.2292    0.0000 C   0  0  0  0  0  0  0  0  0  0  0  0
    1.3487  -10.0157    0.0000 C   0  0  0  0  0  0  0  0  0  0  0  0
    5.5523   -6.9615    0.0000 C   0  0  0  0  0  0  0  0  0  0  0  0
    6.0956  -12.1292    0.0000 C   0  0  0  0  0  0  0  0  0  0  0  0
  1  7  1  0  0  0  0
  1  8  1  0  0  0  0
  2  9  2  0  0  0  0
  3 17  1  0  0  0  0
  3 24  1  0  0  0  0
  4  8  2  0  0  0  0
  4 11  1  0  0  0  0
  5  9  1  0  0  0  0
  5 12  1  0  0  0  0
  6 19  2  0  0  0  0
  6 20  1  0  0  0  0
  7  9  1  0  0  0  0
  7 11  2  0  0  0  0
  8 10  1  0  0  0  0
 10 14  2  0  0  0  0
 10 15  1  0  0  0  0
 12 13  1  0  0  0  0
 12 23  1  0  0  0  0
 13 16  2  0  0  0  0
 13 18  1  0  0  0  0
 14 19  1  0  0  0  0
 15 20  2  0  0  0  0
 16 17  1  0  0  0  0
 17 21  2  0  0  0  0
 18 22  2  0  0  0  0
 21 22  1  0  0  0  0
M  END
> <Value>
5.899998417198648

> <Relation>
<

> <SourceURI>
mol:CHEMBL1984633

$$$$

Generated by Molecular Materials Informatics

 31 34  0  0  0  0  0  0  0  0999 V2000
   -6.8088    1.4619    0.0000 C   0  0  0  0  0  0  0  0  0  0  0  0
   -8.1078    2.2118    0.0000 C   0  0  0  0  0  0  0  0  0  0  0  0
   -9.4069    1.4619    0.0000 O   0  0  0  0  0  0  0  0  0  0  0  0
   -9.4069   -0.0381    0.0000 C   0  0  0  0  0  0  0  0  0  0  0  0
   -8.1078   -0.7881    0.0000 C   0  0  0  0  0  0  0  0  0  0  0  0
   -6.8088   -0.0381    0.0000 N   0  0  0  0  0  0  0  0  0  0  0  0
   -5.5099   -0.7881    0.0000 C   0  0  0  0  0  0  0  0  0  0  0  0
   -4.2109   -0.0381    0.0000 C   0  0  0  0  0  0  0  0  0  0  0  0
   -2.9118   -0.7881    0.0000 C   0  0  0  0  0  0  0  0  0  0  0  0
   -1.6130   -0.0381    0.0000 O   0  0  0  0  0  0  0  0  0  0  0  0
   -0.3139   -0.7881    0.0000 C   0  0  0  0  0  0  0  0  0  0  0  0
   -0.3139   -2.2880    0.0000 C   0  0  0  0  0  0  0  0  0  0  0  0
    0.9852   -3.0380    0.0000 C   0  0  0  0  0  0  0  0  0  0  0  0
   -1.6130   -3.0380    0.0000 O   0  0  0  0  0  0  0  0  0  0  0  0
   -1.6130   -4.5380    0.0000 C   0  0  0  0  0  0  0  0  0  0  0  0
    0.9852   -0.0381    0.0000 C   0  0  0  0  0  0  0  0  0  0  0  0
    2.2840   -0.7881    0.0000 C   0  0  0  0  0  0  0  0  0  0  0  0
    2.2840   -2.2880    0.0000 C   0  0  0  0  0  0  0  0  0  0  0  0
    3.5831   -3.0380    0.0000 N   0  0  0  0  0  0  0  0  0  0  0  0
    4.8821   -2.2880    0.0000 C   0  0  0  0  0  0  0  0  0  0  0  0
    4.8821   -0.7881    0.0000 N   0  0  0  0  0  0  0  0  0  0  0  0
    3.5831   -0.0381    0.0000 C   0  0  0  0  0  0  0  0  0  0  0  0
    3.5831    1.4619    0.0000 N   0  0  0  0  0  0  0  0  0  0  0  0
    4.8821    2.2118    0.0000 C   0  0  0  0  0  0  0  0  0  0  0  0
    6.1812    1.4619    0.0000 C   0  0  0  0  0  0  0  0  0  0  0  0
    7.4800    2.2118    0.0000 C   0  0  0  0  0  0  0  0  0  0  0  0
    8.7791    1.4619    0.0000 Cl  0  0  0  0  0  0  0  0  0  0  0  0
    7.4800    3.7118    0.0000 C   0  0  0  0  0  0  0  0  0  0  0  0
    8.7791    4.4618    0.0000 F   0  0  0  0  0  0  0  0  0  0  0  0
    6.1812    4.4618    0.0000 C   0  0  0  0  0  0  0  0  0  0  0  0
    4.8821    3.7118    0.0000 C   0  0  0  0  0  0  0  0  0  0  0  0
  2  1  1  0  0  0  0
  1  6  1  0  0  0  0
  2  3  1  0  0  0  0
  4  3  1  0  0  0  0
  4  5  1  0  0  0  0
  5  6  1  0  0  0  0
  7  6  1  0  0  0  0
  8  7  1  0  0  0  0
  8  9  1  0  0  0  0
  9 10  1  0  0  0  0
 11 10  1  0  0  0  0
 12 11  2  0  0  0  0
 16 11  1  0  0  0  0
 13 12  1  0  0  0  0
 12 14  1  0  0  0  0
 18 13  2  0  0  0  0
 15 14  1  0  0  0  0
 17 16  2  0  0  0  0
 18 17  1  0  0  0  0
 17 22  1  0  0  0  0
 18 19  1  0  0  0  0
 20 19  2  0  0  0  0
 20 21  1  0  0  0  0
 22 21  2  0  0  0  0
 22 23  1  0  0  0  0
 24 23  1  0  0  0  0
 25 24  2  0  0  0  0
 31 24  1  0  0  0  0
 25 26  1  0  0  0  0
 26 27  1  0  0  0  0
 28 26  2  0  0  0  0
 28 29  1  0  0  0  0
 30 28  1  0  0  0  0
 30 31  2  0  0  0  0
M  END
> <Value>
5.899998417198648

> <Relation>
<

> <SourceURI>
mol:CHEMBL939

$$$$

Generated by Molecular Materials Informatics

 16 18  0  0  0  0  0  0  0  0999 V2000
   -4.6828    4.2044    0.0000 Cl  0  0  0  0  0  0  0  0  0  0  0  0
   -0.8213   -1.6995    0.0000 N   0  0  0  0  0  0  0  0  0  0  0  0
   -0.2811    3.2690    0.0000 N   0  0  0  0  0  0  0  0  0  0  0  0
    1.9044   -1.9861    0.0000 N   0  0  0  0  0  0  0  0  0  0  0  0
   -2.2119    5.0074    0.0000 N   0  0  0  0  0  0  0  0  0  0  0  0
   -0.8213    0.7275    0.0000 C   0  0  0  0  0  0  0  0  0  0  0  0
    0.6053    0.2640    0.0000 C   0  0  0  0  0  0  0  0  0  0  0  0
   -1.2849    2.1542    0.0000 C   0  0  0  0  0  0  0  0  0  0  0  0
    0.6053   -1.2360    0.0000 C   0  0  0  0  0  0  0  0  0  0  0  0
   -1.7030   -0.4860    0.0000 C   0  0  0  0  0  0  0  0  0  0  0  0
   -2.7521    2.4660    0.0000 C   0  0  0  0  0  0  0  0  0  0  0  0
    1.9044    1.0140    0.0000 C   0  0  0  0  0  0  0  0  0  0  0  0
   -3.2157    3.8926    0.0000 C   0  0  0  0  0  0  0  0  0  0  0  0
    3.2033    0.2640    0.0000 C   0  0  0  0  0  0  0  0  0  0  0  0
   -0.7448    4.6955    0.0000 C   0  0  0  0  0  0  0  0  0  0  0  0
    3.2033   -1.2360    0.0000 C   0  0  0  0  0  0  0  0  0  0  0  0
  1 13  1  0  0  0  0
  2  9  1  0  0  0  0
  2 10  1  0  0  0  0
  3  8  2  0  0  0  0
  3 15  1  0  0  0  0
  4  9  2  0  0  0  0
  4 16  1  0  0  0  0
  5 13  1  0  0  0  0
  5 15  2  0  0  0  0
  6  7  1  0  0  0  0
  6  8  1  0  0  0  0
  6 10  2  0  0  0  0
  7  9  1  0  0  0  0
  7 12  2  0  0  0  0
  8 11  1  0  0  0  0
 11 13  2  0  0  0  0
 12 14  1  0  0  0  0
 14 16  2  0  0  0  0
M  END
> <Value>
5.899998417198648

> <Relation>
=

> <SourceURI>
mol:CHEMBL1972988

$$$$

Generated by Molecular Materials Informatics

 28 31  0  0  0  0  0  0  0  0999 V2000
   -4.2641    4.6393    0.0000 O   0  0  0  0  0  0  0  0  0  0  0  0
   -1.1765   11.9513    0.0000 O   0  0  0  0  0  0  0  0  0  0  0  0
   -0.9428   -3.8060    0.0000 N   0  0  0  0  0  0  0  0  0  0  0  0
   -2.3334    2.9008    0.0000 N   0  0  0  0  0  0  0  0  0  0  0  0
    1.7828   -4.0925    0.0000 N   0  0  0  0  0  0  0  0  0  0  0  0
   -1.7932    5.4420    0.0000 N   0  0  0  0  0  0  0  0  0  0  0  0
   -0.9428   -1.3791    0.0000 C   0  0  0  0  0  0  0  0  0  0  0  0
    0.4837   -1.8425    0.0000 C   0  0  0  0  0  0  0  0  0  0  0  0
   -1.4065    0.0477    0.0000 C   0  0  0  0  0  0  0  0  0  0  0  0
    0.4837   -3.3425    0.0000 C   0  0  0  0  0  0  0  0  0  0  0  0
   -1.8245   -2.5925    0.0000 C   0  0  0  0  0  0  0  0  0  0  0  0
    1.7828   -1.0925    0.0000 C   0  0  0  0  0  0  0  0  0  0  0  0
   -0.4027    1.1624    0.0000 C   0  0  0  0  0  0  0  0  0  0  0  0
   -2.8736    0.3595    0.0000 C   0  0  0  0  0  0  0  0  0  0  0  0
   -2.7970    4.3273    0.0000 C   0  0  0  0  0  0  0  0  0  0  0  0
   -0.8663    2.5889    0.0000 C   0  0  0  0  0  0  0  0  0  0  0  0
   -3.3372    1.7860    0.0000 C   0  0  0  0  0  0  0  0  0  0  0  0
    3.0817   -1.8425    0.0000 C   0  0  0  0  0  0  0  0  0  0  0  0
   -2.2568    6.8686    0.0000 C   0  0  0  0  0  0  0  0  0  0  0  0
   -1.2532    7.9833    0.0000 C   0  0  0  0  0  0  0  0  0  0  0  0
    3.0817   -3.3425    0.0000 C   0  0  0  0  0  0  0  0  0  0  0  0
   -1.7167    9.4100    0.0000 C   0  0  0  0  0  0  0  0  0  0  0  0
   -0.7130   10.5248    0.0000 C   0  0  0  0  0  0  0  0  0  0  0  0
    0.2141    7.6715    0.0000 C   0  0  0  0  0  0  0  0  0  0  0  0
    0.7543   10.2128    0.0000 C   0  0  0  0  0  0  0  0  0  0  0  0
    1.2179    8.7862    0.0000 C   0  0  0  0  0  0  0  0  0  0  0  0
   -3.7241    7.1806    0.0000 C   0  0  0  0  0  0  0  0  0  0  0  0
   -2.6437   12.2631    0.0000 C   0  0  0  0  0  0  0  0  0  0  0  0
  1 15  2  0  0  0  0
  2 23  1  0  0  0  0
  2 28  1  0  0  0  0
  3 10  1  0  0  0  0
  3 11  1  0  0  0  0
  4 15  1  0  0  0  0
  4 16  1  0  0  0  0
  4 17  1  0  0  0  0
  5 10  2  0  0  0  0
  5 21  1  0  0  0  0
  6 15  1  0  0  0  0
  6 19  1  0  0  0  0
  7  8  1  0  0  0  0
  7  9  1  0  0  0  0
  7 11  2  0  0  0  0
  8 10  1  0  0  0  0
  8 12  2  0  0  0  0
  9 13  2  0  0  0  0
  9 14  1  0  0  0  0
 12 18  1  0  0  0  0
 13 16  1  0  0  0  0
 14 17  1  0  0  0  0
 18 21  2  0  0  0  0
 19 20  1  0  0  0  0
 19 27  1  0  0  0  0
 20 22  2  0  0  0  0
 20 24  1  0  0  0  0
 22 23  1  0  0  0  0
 23 25  2  0  0  0  0
 24 26  2  0  0  0  0
 25 26  1  0  0  0  0
M  END
> <Value>
5.899998417198648

> <Relation>
<

> <SourceURI>
mol:CHEMBL1965845

$$$$

Generated by Molecular Materials Informatics

 31 34  0  0  0  0  0  0  0  0999 V2000
    1.7089    8.1173    0.0000 S   0  0  0  0  0  0  0  0  0  0  0  0
    7.3499   -8.3417    0.0000 O   0  0  0  0  0  0  0  0  0  0  0  0
    1.5169    4.1068    0.0000 N   0  0  0  0  0  0  0  0  0  0  0  0
   -0.7181    8.1173    0.0000 N   0  0  0  0  0  0  0  0  0  0  0  0
    5.3151   -3.3310    0.0000 N   0  0  0  0  0  0  0  0  0  0  0  0
    1.7884    1.5231    0.0000 N   0  0  0  0  0  0  0  0  0  0  0  0
    3.8904    3.0501    0.0000 N   0  0  0  0  0  0  0  0  0  0  0  0
    0.4953   10.4989    0.0000 N   0  0  0  0  0  0  0  0  0  0  0  0
    7.0785   -5.7579    0.0000 N   0  0  0  0  0  0  0  0  0  0  0  0
    1.2453    6.6906    0.0000 C   0  0  0  0  0  0  0  0  0  0  0  0
    2.1269    5.4772    0.0000 C   0  0  0  0  0  0  0  0  0  0  0  0
   -0.2547    6.6906    0.0000 C   0  0  0  0  0  0  0  0  0  0  0  0
    0.4953    8.9989    0.0000 C   0  0  0  0  0  0  0  0  0  0  0  0
    2.3986    2.8934    0.0000 C   0  0  0  0  0  0  0  0  0  0  0  0
    3.6187    5.6339    0.0000 C   0  0  0  0  0  0  0  0  0  0  0  0
    4.4334   -2.1174    0.0000 C   0  0  0  0  0  0  0  0  0  0  0  0
    2.6702    0.3096    0.0000 C   0  0  0  0  0  0  0  0  0  0  0  0
    4.5003    4.4205    0.0000 C   0  0  0  0  0  0  0  0  0  0  0  0
    2.9416   -2.2743    0.0000 C   0  0  0  0  0  0  0  0  0  0  0  0
    5.0436   -0.7471    0.0000 C   0  0  0  0  0  0  0  0  0  0  0  0
    2.0600   -1.0607    0.0000 C   0  0  0  0  0  0  0  0  0  0  0  0
    4.1618    0.4664    0.0000 C   0  0  0  0  0  0  0  0  0  0  0  0
   -1.1363    5.4772    0.0000 C   0  0  0  0  0  0  0  0  0  0  0  0
    6.8068   -3.1741    0.0000 C   0  0  0  0  0  0  0  0  0  0  0  0
    4.7051   -4.7012    0.0000 C   0  0  0  0  0  0  0  0  0  0  0  0
    7.6885   -4.3877    0.0000 C   0  0  0  0  0  0  0  0  0  0  0  0
    5.5867   -5.9148    0.0000 C   0  0  0  0  0  0  0  0  0  0  0  0
    7.9601   -6.9715    0.0000 C   0  0  0  0  0  0  0  0  0  0  0  0
    1.7944   11.2489    0.0000 C   0  0  0  0  0  0  0  0  0  0  0  0
    9.4519   -6.8146    0.0000 C   0  0  0  0  0  0  0  0  0  0  0  0
    1.7944   12.7489    0.0000 C   0  0  0  0  0  0  0  0  0  0  0  0
  1 10  1  0  0  0  0
  1 13  1  0  0  0  0
  2 28  2  0  0  0  0
  3 11  1  0  0  0  0
  3 14  2  0  0  0  0
  4 12  1  0  0  0  0
  4 13  2  0  0  0  0
  5 16  1  0  0  0  0
  5 24  1  0  0  0  0
  5 25  1  0  0  0  0
  6 14  1  0  0  0  0
  6 17  1  0  0  0  0
  7 14  1  0  0  0  0
  7 18  2  0  0  0  0
  8 13  1  0  0  0  0
  8 29  1  0  0  0  0
  9 26  1  0  0  0  0
  9 27  1  0  0  0  0
  9 28  1  0  0  0  0
 10 11  1  0  0  0  0
 10 12  2  0  0  0  0
 11 15  2  0  0  0  0
 12 23  1  0  0  0  0
 15 18  1  0  0  0  0
 16 19  2  0  0  0  0
 16 20  1  0  0  0  0
 17 21  2  0  0  0  0
 17 22  1  0  0  0  0
 19 21  1  0  0  0  0
 20 22  2  0  0  0  0
 24 26  1  0  0  0  0
 25 27  1  0  0  0  0
 28 30  1  0  0  0  0
 29 31  1  0  0  0  0
M  END
> <Value>
7.199970640755866

> <Relation>
=

> <SourceURI>
mol:CHEMBL1983715

$$$$

Generated by Molecular Materials Informatics

 28 31  0  0  0  0  0  0  0  0999 V2000
   -2.1110    1.2945    0.0000 O   0  0  0  0  0  0  0  0  0  0  0  0
   -2.5746    2.7212    0.0000 O   0  0  0  0  0  0  0  0  0  0  0  0
    1.4403    7.1800    0.0000 O   0  0  0  0  0  0  0  0  0  0  0  0
    1.2463   -2.4073    0.0000 N   0  0  0  0  0  0  0  0  0  0  0  0
   -0.1802   -2.8709    0.0000 N   0  0  0  0  0  0  0  0  0  0  0  0
    2.5454   -0.1573    0.0000 N   0  0  0  0  0  0  0  0  0  0  0  0
    0.3599    2.0974    0.0000 N   0  0  0  0  0  0  0  0  0  0  0  0
    1.2463   -0.9073    0.0000 C   0  0  0  0  0  0  0  0  0  0  0  0
   -0.1802   -0.4438    0.0000 C   0  0  0  0  0  0  0  0  0  0  0  0
    2.5454   -3.1573    0.0000 C   0  0  0  0  0  0  0  0  0  0  0  0
   -0.6437    0.9827    0.0000 C   0  0  0  0  0  0  0  0  0  0  0  0
   -1.0619   -1.6573    0.0000 C   0  0  0  0  0  0  0  0  0  0  0  0
    2.5454   -4.6573    0.0000 C   0  0  0  0  0  0  0  0  0  0  0  0
    3.8445   -2.4073    0.0000 C   0  0  0  0  0  0  0  0  0  0  0  0
   -0.1037    3.5240    0.0000 C   0  0  0  0  0  0  0  0  0  0  0  0
    3.8445   -0.9073    0.0000 C   0  0  0  0  0  0  0  0  0  0  0  0
   -1.5708    3.8360    0.0000 C   0  0  0  0  0  0  0  0  0  0  0  0
    0.9001    4.6387    0.0000 C   0  0  0  0  0  0  0  0  0  0  0  0
    3.8445   -5.4073    0.0000 C   0  0  0  0  0  0  0  0  0  0  0  0
    1.2463   -5.4073    0.0000 C   0  0  0  0  0  0  0  0  0  0  0  0
    0.4365    6.0654    0.0000 C   0  0  0  0  0  0  0  0  0  0  0  0
   -2.0344    5.2625    0.0000 C   0  0  0  0  0  0  0  0  0  0  0  0
   -1.0306    6.3772    0.0000 C   0  0  0  0  0  0  0  0  0  0  0  0
    3.8445   -6.9073    0.0000 C   0  0  0  0  0  0  0  0  0  0  0  0
    1.2463   -6.9073    0.0000 C   0  0  0  0  0  0  0  0  0  0  0  0
    2.5454   -7.6573    0.0000 C   0  0  0  0  0  0  0  0  0  0  0  0
   -4.0417    3.0331    0.0000 C   0  0  0  0  0  0  0  0  0  0  0  0
    0.9767    8.6067    0.0000 C   0  0  0  0  0  0  0  0  0  0  0  0
  1 11  2  0  0  0  0
  2 17  1  0  0  0  0
  2 27  1  0  0  0  0
  3 21  1  0  0  0  0
  3 28  1  0  0  0  0
  4  5  1  0  0  0  0
  4  8  1  0  0  0  0
  4 10  1  0  0  0  0
  5 12  2  0  0  0  0
  6  8  1  0  0  0  0
  6 16  2  0  0  0  0
  7 11  1  0  0  0  0
  7 15  1  0  0  0  0
  8  9  2  0  0  0  0
  9 11  1  0  0  0  0
  9 12  1  0  0  0  0
 10 13  1  0  0  0  0
 10 14  2  0  0  0  0
 13 19  2  0  0  0  0
 13 20  1  0  0  0  0
 14 16  1  0  0  0  0
 15 17  1  0  0  0  0
 15 18  2  0  0  0  0
 17 22  2  0  0  0  0
 18 21  1  0  0  0  0
 19 24  1  0  0  0  0
 20 25  2  0  0  0  0
 21 23  2  0  0  0  0
 22 23  1  0  0  0  0
 24 26  2  0  0  0  0
 25 26  1  0  0  0  0
M  END
> <Value>
6.0

> <Relation>
=

> <SourceURI>
mol:CHEMBL1982167

$$$$

Generated by Molecular Materials Informatics

 44 50  0  0  0  0  0  0  0  0999 V2000
    2.9453   -1.5545    0.0000 S   0  0  0  0  0  0  0  0  0  0  0  0
   -3.0394   -6.8363    0.0000 F   0  0  0  0  0  0  0  0  0  0  0  0
   -7.5394   -4.2381    0.0000 F   0  0  0  0  0  0  0  0  0  0  0  0
   -3.0394   -4.2381    0.0000 O   0  0  0  0  0  0  0  0  0  0  0  0
   -3.6469    6.9366    0.0000 O   0  0  0  0  0  0  0  0  0  0  0  0
    1.5187    0.4090    0.0000 N   0  0  0  0  0  0  0  0  0  0  0  0
    0.0922   -1.5545    0.0000 N   0  0  0  0  0  0  0  0  0  0  0  0
    0.6324    3.4139    0.0000 N   0  0  0  0  0  0  0  0  0  0  0  0
   -1.2983    5.1522    0.0000 N   0  0  0  0  0  0  0  0  0  0  0  0
    1.1726    5.9551    0.0000 N   0  0  0  0  0  0  0  0  0  0  0  0
   -5.2894   -2.9390    0.0000 N   0  0  0  0  0  0  0  0  0  0  0  0
   -2.6891    9.4320    0.0000 N   0  0  0  0  0  0  0  0  0  0  0  0
    0.0922    0.8724    0.0000 C   0  0  0  0  0  0  0  0  0  0  0  0
   -0.7894   -0.3410    0.0000 C   0  0  0  0  0  0  0  0  0  0  0  0
    1.5187   -1.0910    0.0000 C   0  0  0  0  0  0  0  0  0  0  0  0
   -0.3714    2.2991    0.0000 C   0  0  0  0  0  0  0  0  0  0  0  0
   -2.2894   -0.3410    0.0000 C   0  0  0  0  0  0  0  0  0  0  0  0
    2.9453    0.8724    0.0000 C   0  0  0  0  0  0  0  0  0  0  0  0
    3.8269   -0.3410    0.0000 C   0  0  0  0  0  0  0  0  0  0  0  0
   -3.0394   -1.6401    0.0000 C   0  0  0  0  0  0  0  0  0  0  0  0
   -1.8385    2.6110    0.0000 C   0  0  0  0  0  0  0  0  0  0  0  0
   -3.0394    0.9580    0.0000 C   0  0  0  0  0  0  0  0  0  0  0  0
    0.1687    4.8404    0.0000 C   0  0  0  0  0  0  0  0  0  0  0  0
   -4.5394   -1.6401    0.0000 C   0  0  0  0  0  0  0  0  0  0  0  0
   -2.3022    4.0375    0.0000 C   0  0  0  0  0  0  0  0  0  0  0  0
   -4.5394    0.9580    0.0000 C   0  0  0  0  0  0  0  0  0  0  0  0
   -5.2894   -0.3410    0.0000 C   0  0  0  0  0  0  0  0  0  0  0  0
   -4.5394   -4.2381    0.0000 C   0  0  0  0  0  0  0  0  0  0  0  0
    0.7089    7.3817    0.0000 C   0  0  0  0  0  0  0  0  0  0  0  0
   -5.2894   -5.5372    0.0000 C   0  0  0  0  0  0  0  0  0  0  0  0
   -1.2218    9.1200    0.0000 C   0  0  0  0  0  0  0  0  0  0  0  0
   -0.7582    7.6935    0.0000 C   0  0  0  0  0  0  0  0  0  0  0  0
   -4.5394   -6.8363    0.0000 C   0  0  0  0  0  0  0  0  0  0  0  0
   -6.7894   -5.5372    0.0000 C   0  0  0  0  0  0  0  0  0  0  0  0
    1.7127    8.4964    0.0000 C   0  0  0  0  0  0  0  0  0  0  0  0
   -3.8038    8.4282    0.0000 C   0  0  0  0  0  0  0  0  0  0  0  0
   -0.2182   10.2348    0.0000 C   0  0  0  0  0  0  0  0  0  0  0  0
    1.2491    9.9230    0.0000 C   0  0  0  0  0  0  0  0  0  0  0  0
   -3.2991   10.8022    0.0000 C   0  0  0  0  0  0  0  0  0  0  0  0
   -5.2894   -8.1352    0.0000 C   0  0  0  0  0  0  0  0  0  0  0  0
   -7.5394   -6.8363    0.0000 C   0  0  0  0  0  0  0  0  0  0  0  0
   -5.1027    9.1782    0.0000 C   0  0  0  0  0  0  0  0  0  0  0  0
   -6.7894   -8.1352    0.0000 C   0  0  0  0  0  0  0  0  0  0  0  0
   -4.7909   10.6455    0.0000 C   0  0  0  0  0  0  0  0  0  0  0  0
  1 15  1  0  0  0  0
  1 19  1  0  0  0  0
  2 33  1  0  0  0  0
  3 34  1  0  0  0  0
  4 28  2  0  0  0  0
  5 36  2  0  0  0  0
  6 13  1  0  0  0  0
  6 15  1  0  0  0  0
  6 18  1  0  0  0  0
  7 14  1  0  0  0  0
  7 15  2  0  0  0  0
  8 16  1  0  0  0  0
  8 23  2  0  0  0  0
  9 23  1  0  0  0  0
  9 25  2  0  0  0  0
 10 23  1  0  0  0  0
 10 29  1  0  0  0  0
 11 24  1  0  0  0  0
 11 28  1  0  0  0  0
 12 31  1  0  0  0  0
 12 36  1  0  0  0  0
 12 39  1  0  0  0  0
 13 14  2  0  0  0  0
 13 16  1  0  0  0  0
 14 17  1  0  0  0  0
 16 21  2  0  0  0  0
 17 20  2  0  0  0  0
 17 22  1  0  0  0  0
 18 19  2  0  0  0  0
 20 24  1  0  0  0  0
 21 25  1  0  0  0  0
 22 26  2  0  0  0  0
 24 27  2  0  0  0  0
 26 27  1  0  0  0  0
 28 30  1  0  0  0  0
 29 32  1  0  0  0  0
 29 35  2  0  0  0  0
 30 33  1  0  0  0  0
 30 34  2  0  0  0  0
 31 32  2  0  0  0  0
 31 37  1  0  0  0  0
 33 40  2  0  0  0  0
 34 41  1  0  0  0  0
 35 38  1  0  0  0  0
 36 42  1  0  0  0  0
 37 38  2  0  0  0  0
 39 44  1  0  0  0  0
 40 43  1  0  0  0  0
 41 43  2  0  0  0  0
 42 44  1  0  0  0  0
M  END
> <Value>
5.899998417198648

> <Relation>
<

> <SourceURI>
mol:CHEMBL2006715

$$$$

Generated by Molecular Materials Informatics

 36 40  0  0  0  0  0  0  0  0999 V2000
   -9.7761    2.2892    0.0000 S   0  0  0  0  0  0  0  0  0  0  0  0
  -11.0752    1.5392    0.0000 O   0  0  0  0  0  0  0  0  0  0  0  0
   -8.4772    3.0392    0.0000 O   0  0  0  0  0  0  0  0  0  0  0  0
  -12.0261    6.1863    0.0000 O   0  0  0  0  0  0  0  0  0  0  0  0
    6.3803   -5.3578    0.0000 O   0  0  0  0  0  0  0  0  0  0  0  0
   -4.5261    0.9902    0.0000 O   0  0  0  0  0  0  0  0  0  0  0  0
    2.3556   -2.8215    0.0000 N   0  0  0  0  0  0  0  0  0  0  0  0
    2.3556   -0.3944    0.0000 N   0  0  0  0  0  0  0  0  0  0  0  0
  -10.5261    3.5882    0.0000 N   0  0  0  0  0  0  0  0  0  0  0  0
   -4.5261   -1.6078    0.0000 N   0  0  0  0  0  0  0  0  0  0  0  0
    3.7821   -5.3578    0.0000 N   0  0  0  0  0  0  0  0  0  0  0  0
    3.7821   -2.3578    0.0000 C   0  0  0  0  0  0  0  0  0  0  0  0
    3.7821   -0.8578    0.0000 C   0  0  0  0  0  0  0  0  0  0  0  0
    1.4739   -1.6078    0.0000 C   0  0  0  0  0  0  0  0  0  0  0  0
   -9.0261    0.9902    0.0000 C   0  0  0  0  0  0  0  0  0  0  0  0
    5.0812   -3.1078    0.0000 C   0  0  0  0  0  0  0  0  0  0  0  0
   -0.0261   -1.6078    0.0000 C   0  0  0  0  0  0  0  0  0  0  0  0
   -6.7761   -0.3089    0.0000 C   0  0  0  0  0  0  0  0  0  0  0  0
   -7.5261    0.9902    0.0000 C   0  0  0  0  0  0  0  0  0  0  0  0
    5.0812   -0.1078    0.0000 C   0  0  0  0  0  0  0  0  0  0  0  0
    6.3803   -2.3578    0.0000 C   0  0  0  0  0  0  0  0  0  0  0  0
   -9.7761   -0.3089    0.0000 C   0  0  0  0  0  0  0  0  0  0  0  0
    5.0812   -4.6078    0.0000 C   0  0  0  0  0  0  0  0  0  0  0  0
   -5.2761   -0.3089    0.0000 C   0  0  0  0  0  0  0  0  0  0  0  0
   -3.0261   -1.6078    0.0000 C   0  0  0  0  0  0  0  0  0  0  0  0
   -0.7761   -2.9069    0.0000 C   0  0  0  0  0  0  0  0  0  0  0  0
   -0.7761   -0.3089    0.0000 C   0  0  0  0  0  0  0  0  0  0  0  0
    6.3803   -0.8578    0.0000 C   0  0  0  0  0  0  0  0  0  0  0  0
   -9.7761    4.8872    0.0000 C   0  0  0  0  0  0  0  0  0  0  0  0
  -12.0261    3.5882    0.0000 C   0  0  0  0  0  0  0  0  0  0  0  0
   -7.5261   -1.6078    0.0000 C   0  0  0  0  0  0  0  0  0  0  0  0
   -9.0261   -1.6078    0.0000 C   0  0  0  0  0  0  0  0  0  0  0  0
   -2.2761   -2.9069    0.0000 C   0  0  0  0  0  0  0  0  0  0  0  0
   -2.2761   -0.3089    0.0000 C   0  0  0  0  0  0  0  0  0  0  0  0
  -10.5261    6.1863    0.0000 C   0  0  0  0  0  0  0  0  0  0  0  0
  -12.7761    4.8872    0.0000 C   0  0  0  0  0  0  0  0  0  0  0  0
  1  2  2  0  0  0  0
  1  3  2  0  0  0  0
  1  9  1  0  0  0  0
  1 15  1  0  0  0  0
  4 35  1  0  0  0  0
  4 36  1  0  0  0  0
  5 23  2  0  0  0  0
  6 24  2  0  0  0  0
  7 12  1  0  0  0  0
  7 14  2  0  0  0  0
  8 13  1  0  0  0  0
  8 14  1  0  0  0  0
  9 29  1  0  0  0  0
  9 30  1  0  0  0  0
 10 24  1  0  0  0  0
 10 25  1  0  0  0  0
 11 23  1  0  0  0  0
 12 13  2  0  0  0  0
 12 16  1  0  0  0  0
 13 20  1  0  0  0  0
 14 17  1  0  0  0  0
 15 19  2  0  0  0  0
 15 22  1  0  0  0  0
 16 21  2  0  0  0  0
 16 23  1  0  0  0  0
 17 26  2  0  0  0  0
 17 27  1  0  0  0  0
 18 19  1  0  0  0  0
 18 24  1  0  0  0  0
 18 31  2  0  0  0  0
 20 28  2  0  0  0  0
 21 28  1  0  0  0  0
 22 32  2  0  0  0  0
 25 33  2  0  0  0  0
 25 34  1  0  0  0  0
 26 33  1  0  0  0  0
 27 34  2  0  0  0  0
 29 35  1  0  0  0  0
 30 36  1  0  0  0  0
 31 32  1  0  0  0  0
M  END
> <Value>
5.899998417198648

> <Relation>
<

> <SourceURI>
mol:CHEMBL1986597

$$$$

Generated by Molecular Materials Informatics

 18 20  0  0  0  0  0  0  0  0999 V2000
    4.1865   -3.9416    0.0000 O   0  0  0  0  0  0  0  0  0  0  0  0
    0.1618   -1.4053    0.0000 N   0  0  0  0  0  0  0  0  0  0  0  0
    0.1618    1.0218    0.0000 N   0  0  0  0  0  0  0  0  0  0  0  0
    1.5883   -3.9416    0.0000 N   0  0  0  0  0  0  0  0  0  0  0  0
   -5.2198   -0.1917    0.0000 N   0  0  0  0  0  0  0  0  0  0  0  0
    1.5883   -0.9416    0.0000 C   0  0  0  0  0  0  0  0  0  0  0  0
    1.5883    0.5583    0.0000 C   0  0  0  0  0  0  0  0  0  0  0  0
   -0.7198   -0.1917    0.0000 C   0  0  0  0  0  0  0  0  0  0  0  0
    2.8874   -1.6916    0.0000 C   0  0  0  0  0  0  0  0  0  0  0  0
   -2.2198   -0.1917    0.0000 C   0  0  0  0  0  0  0  0  0  0  0  0
    2.8874    1.3083    0.0000 C   0  0  0  0  0  0  0  0  0  0  0  0
    4.1865   -0.9416    0.0000 C   0  0  0  0  0  0  0  0  0  0  0  0
    2.8874   -3.1916    0.0000 C   0  0  0  0  0  0  0  0  0  0  0  0
    4.1865    0.5583    0.0000 C   0  0  0  0  0  0  0  0  0  0  0  0
   -2.9698    1.1073    0.0000 C   0  0  0  0  0  0  0  0  0  0  0  0
   -2.9698   -1.4907    0.0000 C   0  0  0  0  0  0  0  0  0  0  0  0
   -4.4698    1.1073    0.0000 C   0  0  0  0  0  0  0  0  0  0  0  0
   -4.4698   -1.4907    0.0000 C   0  0  0  0  0  0  0  0  0  0  0  0
  1 13  2  0  0  0  0
  2  6  1  0  0  0  0
  2  8  2  0  0  0  0
  3  7  1  0  0  0  0
  3  8  1  0  0  0  0
  4 13  1  0  0  0  0
  5 17  2  0  0  0  0
  5 18  1  0  0  0  0
  6  7  2  0  0  0  0
  6  9  1  0  0  0  0
  7 11  1  0  0  0  0
  8 10  1  0  0  0  0
  9 12  2  0  0  0  0
  9 13  1  0  0  0  0
 10 15  2  0  0  0  0
 10 16  1  0  0  0  0
 11 14  2  0  0  0  0
 12 14  1  0  0  0  0
 15 17  1  0  0  0  0
 16 18  2  0  0  0  0
M  END
> <Value>
5.899998417198648

> <Relation>
<

> <SourceURI>
mol:CHEMBL1990482

$$$$

Generated by Molecular Materials Informatics

 27 31  0  0  0  0  0  0  0  0999 V2000
   -6.3064    0.6370    0.0000 F   0  0  0  0  0  0  0  0  0  0  0  0
    2.0017   -0.1130    0.0000 N   0  0  0  0  0  0  0  0  0  0  0  0
    0.5752    1.8504    0.0000 N   0  0  0  0  0  0  0  0  0  0  0  0
   -1.3555   -2.3150    0.0000 N   0  0  0  0  0  0  0  0  0  0  0  0
    4.5999    1.3870    0.0000 N   0  0  0  0  0  0  0  0  0  0  0  0
   -0.8154   -4.8563    0.0000 N   0  0  0  0  0  0  0  0  0  0  0  0
   -3.2863   -4.0536    0.0000 N   0  0  0  0  0  0  0  0  0  0  0  0
    0.5752   -0.5767    0.0000 C   0  0  0  0  0  0  0  0  0  0  0  0
   -0.3064    0.6370    0.0000 C   0  0  0  0  0  0  0  0  0  0  0  0
    2.0017    1.3870    0.0000 C   0  0  0  0  0  0  0  0  0  0  0  0
    0.1117   -2.0032    0.0000 C   0  0  0  0  0  0  0  0  0  0  0  0
   -1.8064    0.6370    0.0000 C   0  0  0  0  0  0  0  0  0  0  0  0
    3.3008   -0.8630    0.0000 C   0  0  0  0  0  0  0  0  0  0  0  0
    3.3008    2.1370    0.0000 C   0  0  0  0  0  0  0  0  0  0  0  0
    1.1154   -3.1179    0.0000 C   0  0  0  0  0  0  0  0  0  0  0  0
   -1.8192   -3.7418    0.0000 C   0  0  0  0  0  0  0  0  0  0  0  0
   -2.5564   -0.6621    0.0000 C   0  0  0  0  0  0  0  0  0  0  0  0
   -2.5564    1.9359    0.0000 C   0  0  0  0  0  0  0  0  0  0  0  0
    4.5999   -0.1130    0.0000 C   0  0  0  0  0  0  0  0  0  0  0  0
    0.6517   -4.5445    0.0000 C   0  0  0  0  0  0  0  0  0  0  0  0
   -4.0564   -0.6621    0.0000 C   0  0  0  0  0  0  0  0  0  0  0  0
   -4.0564    1.9359    0.0000 C   0  0  0  0  0  0  0  0  0  0  0  0
   -4.8064    0.6370    0.0000 C   0  0  0  0  0  0  0  0  0  0  0  0
   -3.7499   -5.4801    0.0000 C   0  0  0  0  0  0  0  0  0  0  0  0
   -5.2170   -5.7919    0.0000 C   0  0  0  0  0  0  0  0  0  0  0  0
   -6.3317   -6.7958    0.0000 C   0  0  0  0  0  0  0  0  0  0  0  0
   -6.6437   -5.3285    0.0000 C   0  0  0  0  0  0  0  0  0  0  0  0
  1 23  1  0  0  0  0
  2  8  1  0  0  0  0
  2 10  1  0  0  0  0
  2 13  1  0  0  0  0
  3  9  1  0  0  0  0
  3 10  2  0  0  0  0
  4 11  1  0  0  0  0
  4 16  2  0  0  0  0
  5 14  2  0  0  0  0
  5 19  1  0  0  0  0
  6 16  1  0  0  0  0
  6 20  2  0  0  0  0
  7 16  1  0  0  0  0
  7 24  1  0  0  0  0
  8  9  2  0  0  0  0
  8 11  1  0  0  0  0
  9 12  1  0  0  0  0
 10 14  1  0  0  0  0
 11 15  2  0  0  0  0
 12 17  2  0  0  0  0
 12 18  1  0  0  0  0
 13 19  2  0  0  0  0
 15 20  1  0  0  0  0
 17 21  1  0  0  0  0
 18 22  2  0  0  0  0
 21 23  2  0  0  0  0
 22 23  1  0  0  0  0
 24 25  1  0  0  0  0
 25 26  1  0  0  0  0
 25 27  1  0  0  0  0
 26 27  1  0  0  0  0
M  END
> <Value>
5.899998417198648

> <Relation>
<

> <SourceURI>
mol:CHEMBL1990904

$$$$

Generated by Molecular Materials Informatics

 23 25  0  0  0  0  0  0  0  0999 V2000
    0.8925    4.5928    0.0000 S   0  0  0  0  0  0  0  0  0  0  0  0
    3.6182   -4.1208    0.0000 S   0  0  0  0  0  0  0  0  0  0  0  0
    2.1182   -4.1208    0.0000 O   0  0  0  0  0  0  0  0  0  0  0  0
    5.1182   -4.1208    0.0000 O   0  0  0  0  0  0  0  0  0  0  0  0
   -2.2391    4.6782    0.0000 O   0  0  0  0  0  0  0  0  0  0  0  0
    4.9173    4.1291    0.0000 N   0  0  0  0  0  0  0  0  0  0  0  0
   -2.2391    2.0802    0.0000 N   0  0  0  0  0  0  0  0  0  0  0  0
    2.3191    2.6291    0.0000 C   0  0  0  0  0  0  0  0  0  0  0  0
    3.6182    1.8792    0.0000 C   0  0  0  0  0  0  0  0  0  0  0  0
    2.3191    4.1291    0.0000 C   0  0  0  0  0  0  0  0  0  0  0  0
    3.6182    0.3792    0.0000 C   0  0  0  0  0  0  0  0  0  0  0  0
    0.0109    3.3791    0.0000 C   0  0  0  0  0  0  0  0  0  0  0  0
    0.8925    2.1657    0.0000 C   0  0  0  0  0  0  0  0  0  0  0  0
    3.6182   -2.6208    0.0000 C   0  0  0  0  0  0  0  0  0  0  0  0
    4.9173    2.6291    0.0000 C   0  0  0  0  0  0  0  0  0  0  0  0
    3.6182    4.8791    0.0000 C   0  0  0  0  0  0  0  0  0  0  0  0
    4.9173   -0.3708    0.0000 C   0  0  0  0  0  0  0  0  0  0  0  0
    2.3191   -0.3708    0.0000 C   0  0  0  0  0  0  0  0  0  0  0  0
   -1.4891    3.3791    0.0000 C   0  0  0  0  0  0  0  0  0  0  0  0
    4.9173   -1.8708    0.0000 C   0  0  0  0  0  0  0  0  0  0  0  0
    2.3191   -1.8708    0.0000 C   0  0  0  0  0  0  0  0  0  0  0  0
    3.6182   -5.6208    0.0000 C   0  0  0  0  0  0  0  0  0  0  0  0
    4.9173   -6.3709    0.0000 C   0  0  0  0  0  0  0  0  0  0  0  0
  1 10  1  0  0  0  0
  1 12  1  0  0  0  0
  2  3  2  0  0  0  0
  2  4  2  0  0  0  0
  2 14  1  0  0  0  0
  2 22  1  0  0  0  0
  5 19  2  0  0  0  0
  6 15  1  0  0  0  0
  6 16  2  0  0  0  0
  7 19  1  0  0  0  0
  8  9  1  0  0  0  0
  8 10  2  0  0  0  0
  8 13  1  0  0  0  0
  9 11  1  0  0  0  0
  9 15  2  0  0  0  0
 10 16  1  0  0  0  0
 11 17  2  0  0  0  0
 11 18  1  0  0  0  0
 12 13  2  0  0  0  0
 12 19  1  0  0  0  0
 14 20  2  0  0  0  0
 14 21  1  0  0  0  0
 17 20  1  0  0  0  0
 18 21  2  0  0  0  0
 22 23  1  0  0  0  0
M  END
> <Value>
5.899998417198648

> <Relation>
<

> <SourceURI>
mol:CHEMBL2000104

$$$$

Generated by Molecular Materials Informatics

 24 27  0  0  0  0  0  0  0  0999 V2000
    0.2482   -0.8678    0.0000 S   0  0  0  0  0  0  0  0  0  0  0  0
    3.3798    1.6447    0.0000 O   0  0  0  0  0  0  0  0  0  0  0  0
   -2.6049   -0.8678    0.0000 N   0  0  0  0  0  0  0  0  0  0  0  0
   -3.4866    0.3457    0.0000 N   0  0  0  0  0  0  0  0  0  0  0  0
    3.3798   -0.9534    0.0000 N   0  0  0  0  0  0  0  0  0  0  0  0
   -1.1784    1.0957    0.0000 C   0  0  0  0  0  0  0  0  0  0  0  0
   -1.1784   -0.4043    0.0000 C   0  0  0  0  0  0  0  0  0  0  0  0
   -2.6049    1.5591    0.0000 C   0  0  0  0  0  0  0  0  0  0  0  0
    1.1298    0.3457    0.0000 C   0  0  0  0  0  0  0  0  0  0  0  0
    0.2482    1.5591    0.0000 C   0  0  0  0  0  0  0  0  0  0  0  0
   -3.0686    2.9858    0.0000 C   0  0  0  0  0  0  0  0  0  0  0  0
    2.6298    0.3457    0.0000 C   0  0  0  0  0  0  0  0  0  0  0  0
   -4.5357    3.2977    0.0000 C   0  0  0  0  0  0  0  0  0  0  0  0
   -2.0647    4.1006    0.0000 C   0  0  0  0  0  0  0  0  0  0  0  0
   -4.9993    4.7242    0.0000 C   0  0  0  0  0  0  0  0  0  0  0  0
   -2.5284    5.5271    0.0000 C   0  0  0  0  0  0  0  0  0  0  0  0
    4.8798   -0.9534    0.0000 C   0  0  0  0  0  0  0  0  0  0  0  0
   -3.9955    5.8389    0.0000 C   0  0  0  0  0  0  0  0  0  0  0  0
    5.6298   -2.2523    0.0000 C   0  0  0  0  0  0  0  0  0  0  0  0
    7.1298   -2.2523    0.0000 C   0  0  0  0  0  0  0  0  0  0  0  0
    4.8798   -3.5514    0.0000 C   0  0  0  0  0  0  0  0  0  0  0  0
    7.8798   -3.5514    0.0000 C   0  0  0  0  0  0  0  0  0  0  0  0
    5.6298   -4.8505    0.0000 C   0  0  0  0  0  0  0  0  0  0  0  0
    7.1298   -4.8505    0.0000 C   0  0  0  0  0  0  0  0  0  0  0  0
  1  7  1  0  0  0  0
  1  9  1  0  0  0  0
  2 12  2  0  0  0  0
  3  4  1  0  0  0  0
  3  7  1  0  0  0  0
  4  8  2  0  0  0  0
  5 12  1  0  0  0  0
  5 17  1  0  0  0  0
  6  7  2  0  0  0  0
  6  8  1  0  0  0  0
  6 10  1  0  0  0  0
  8 11  1  0  0  0  0
  9 10  2  0  0  0  0
  9 12  1  0  0  0  0
 11 13  2  0  0  0  0
 11 14  1  0  0  0  0
 13 15  1  0  0  0  0
 14 16  2  0  0  0  0
 15 18  2  0  0  0  0
 16 18  1  0  0  0  0
 17 19  1  0  0  0  0
 19 20  1  0  0  0  0
 19 21  1  0  0  0  0
 20 22  1  0  0  0  0
 21 23  1  0  0  0  0
 22 24  1  0  0  0  0
 23 24  1  0  0  0  0
M  END
> <Value>
7.700057099977233

> <Relation>
=

> <SourceURI>
mol:CHEMBL2005475

$$$$

Generated by Molecular Materials Informatics

 17 19  0  0  0  0  0  0  0  0999 V2000
    0.2591    5.6295    0.0000 Cl  0  0  0  0  0  0  0  0  0  0  0  0
   -0.8213   -1.8801    0.0000 N   0  0  0  0  0  0  0  0  0  0  0  0
    1.9043   -2.1666    0.0000 N   0  0  0  0  0  0  0  0  0  0  0  0
   -2.2118    4.8266    0.0000 N   0  0  0  0  0  0  0  0  0  0  0  0
   -4.6828    4.0237    0.0000 N   0  0  0  0  0  0  0  0  0  0  0  0
   -0.8213    0.5468    0.0000 C   0  0  0  0  0  0  0  0  0  0  0  0
    0.6053    0.0834    0.0000 C   0  0  0  0  0  0  0  0  0  0  0  0
   -1.2849    1.9735    0.0000 C   0  0  0  0  0  0  0  0  0  0  0  0
    0.6053   -1.4166    0.0000 C   0  0  0  0  0  0  0  0  0  0  0  0
   -1.7029   -0.6666    0.0000 C   0  0  0  0  0  0  0  0  0  0  0  0
   -0.2811    3.0883    0.0000 C   0  0  0  0  0  0  0  0  0  0  0  0
   -2.7520    2.2854    0.0000 C   0  0  0  0  0  0  0  0  0  0  0  0
    1.9043    0.8334    0.0000 C   0  0  0  0  0  0  0  0  0  0  0  0
   -0.7448    4.5148    0.0000 C   0  0  0  0  0  0  0  0  0  0  0  0
   -3.2157    3.7119    0.0000 C   0  0  0  0  0  0  0  0  0  0  0  0
    3.2033    0.0834    0.0000 C   0  0  0  0  0  0  0  0  0  0  0  0
    3.2033   -1.4166    0.0000 C   0  0  0  0  0  0  0  0  0  0  0  0
  1 14  1  0  0  0  0
  2  9  1  0  0  0  0
  2 10  1  0  0  0  0
  3  9  2  0  0  0  0
  3 17  1  0  0  0  0
  4 14  2  0  0  0  0
  4 15  1  0  0  0  0
  5 15  1  0  0  0  0
  6  7  1  0  0  0  0
  6  8  1  0  0  0  0
  6 10  2  0  0  0  0
  7  9  1  0  0  0  0
  7 13  2  0  0  0  0
  8 11  2  0  0  0  0
  8 12  1  0  0  0  0
 11 14  1  0  0  0  0
 12 15  2  0  0  0  0
 13 16  1  0  0  0  0
 16 17  2  0  0  0  0
M  END
> <Value>
7.400007822415902

> <Relation>
=

> <SourceURI>
mol:CHEMBL1987448

$$$$

Generated by Molecular Materials Informatics

 28 31  0  0  0  0  0  0  0  0999 V2000
   -3.9154   -1.9636    0.0000 C   0  0  0  0  0  0  0  0  0  0  0  0
    2.1072    3.1675    0.0000 C   0  0  0  0  0  0  0  0  0  0  0  0
   -6.1597   -2.9308    0.0000 C   0  0  0  0  0  0  0  0  0  0  0  0
   -6.2958   -1.4195    0.0000 N   0  0  0  0  0  0  0  0  0  0  0  0
   -4.6711   -3.2558    0.0000 C   0  0  0  0  0  0  0  0  0  0  0  0
   -2.4192   -1.9862    0.0000 C   0  0  0  0  0  0  0  0  0  0  0  0
   -1.6560   -0.6940    0.0000 C   0  0  0  0  0  0  0  0  0  0  0  0
    0.5960    3.1675    0.0000 N   0  0  0  0  0  0  0  0  0  0  0  0
   -4.8978   -0.8301    0.0000 C   0  0  0  0  0  0  0  0  0  0  0  0
   -0.1371    1.8903    0.0000 C   0  0  0  0  0  0  0  0  0  0  0  0
   -2.4192    0.5981    0.0000 C   0  0  0  0  0  0  0  0  0  0  0  0
    2.8403    1.8903    0.0000 N   0  0  0  0  0  0  0  0  0  0  0  0
   -1.6484    1.8903    0.0000 C   0  0  0  0  0  0  0  0  0  0  0  0
    2.8403    4.4747    0.0000 O   0  0  0  0  0  0  0  0  0  0  0  0
   -7.2706   -3.9132    0.0000 O   0  0  0  0  0  0  0  0  0  0  0  0
   -0.1748   -0.7167    0.0000 C   0  0  0  0  0  0  0  0  0  0  0  0
    0.5883    0.5755    0.0000 C   0  0  0  0  0  0  0  0  0  0  0  0
    4.3516    1.8903    0.0000 C   0  0  0  0  0  0  0  0  0  0  0  0
    5.0846    0.5831    0.0000 C   0  0  0  0  0  0  0  0  0  0  0  0
    6.5809    0.5831    0.0000 C   0  0  0  0  0  0  0  0  0  0  0  0
   -3.9457   -4.5706    0.0000 C   0  0  0  0  0  0  0  0  0  0  0  0
   -1.6937   -3.2935    0.0000 C   0  0  0  0  0  0  0  0  0  0  0  0
   -2.4645   -4.5706    0.0000 C   0  0  0  0  0  0  0  0  0  0  0  0
    6.5582    3.1825    0.0000 C   0  0  0  0  0  0  0  0  0  0  0  0
   -2.3814    3.2052    0.0000 C   0  0  0  0  0  0  0  0  0  0  0  0
    5.0770    3.1675    0.0000 C   0  0  0  0  0  0  0  0  0  0  0  0
    7.3290    1.8903    0.0000 C   0  0  0  0  0  0  0  0  0  0  0  0
    7.3290   -0.6940    0.0000 C   0  0  0  0  0  0  0  0  0  0  0  0
  2  8  1  0  0  0  0
  3  5  1  0  0  0  0
  4  9  1  0  0  0  0
  5  1  2  0  0  0  0
  6  1  1  0  0  0  0
  7  6  1  0  0  0  0
  8 10  1  0  0  0  0
  9  1  1  0  0  0  0
 10 17  2  0  0  0  0
 11  7  1  0  0  0  0
 12  2  1  0  0  0  0
 13 11  2  0  0  0  0
 14  2  2  0  0  0  0
 15  3  2  0  0  0  0
 16  7  2  0  0  0  0
 17 16  1  0  0  0  0
 18 12  1  0  0  0  0
 19 18  2  0  0  0  0
 20 19  1  0  0  0  0
 21  5  1  0  0  0  0
 22  6  2  0  0  0  0
 23 22  1  0  0  0  0
 24 26  2  0  0  0  0
 25 13  1  0  0  0  0
 26 18  1  0  0  0  0
 27 24  1  0  0  0  0
 28 20  1  0  0  0  0
  3  4  1  0  0  0  0
 21 23  2  0  0  0  0
 13 10  1  0  0  0  0
 20 27  2  0  0  0  0
M  END
> <Value>
5.899998417198648

> <Relation>
<

> <SourceURI>
mol:CHEMBL183844

$$$$

Generated by Molecular Materials Informatics

 27 30  0  0  0  0  0  0  0  0999 V2000
   -5.4696    1.2575    0.0000 C   0  0  0  0  0  0  0  0  0  0  0  0
   -5.4719   -0.2473    0.0000 C   0  0  0  0  0  0  0  0  0  0  0  0
   -4.1755   -0.9979    0.0000 C   0  0  0  0  0  0  0  0  0  0  0  0
   -2.8679   -0.2462    0.0000 C   0  0  0  0  0  0  0  0  0  0  0  0
   -2.8735    1.2646    0.0000 C   0  0  0  0  0  0  0  0  0  0  0  0
   -4.1792    2.0081    0.0000 C   0  0  0  0  0  0  0  0  0  0  0  0
   -4.1774   -2.4888    0.0000 C   0  0  0  0  0  0  0  0  0  0  0  0
   -4.1850   -5.4876    0.0000 C   0  0  0  0  0  0  0  0  0  0  0  0
   -2.8804   -4.7318    0.0000 C   0  0  0  0  0  0  0  0  0  0  0  0
   -2.8839   -3.2357    0.0000 C   0  0  0  0  0  0  0  0  0  0  0  0
   -4.1863    3.5079    0.0000 N   0  0  0  0  0  0  0  0  0  0  0  0
   -2.8908    4.2638    0.0000 C   0  0  0  0  0  0  0  0  0  0  0  0
   -2.8979    5.7637    0.0000 O   0  0  0  0  0  0  0  0  0  0  0  0
   -1.5884    3.5199    0.0000 N   0  0  0  0  0  0  0  0  0  0  0  0
   -0.2929    4.2760    0.0000 C   0  0  0  0  0  0  0  0  0  0  0  0
    1.0108    3.5265    0.0000 C   0  0  0  0  0  0  0  0  0  0  0  0
    2.3053    4.2813    0.0000 C   0  0  0  0  0  0  0  0  0  0  0  0
    2.2991    5.7828    0.0000 C   0  0  0  0  0  0  0  0  0  0  0  0
    0.9876    6.5262    0.0000 C   0  0  0  0  0  0  0  0  0  0  0  0
   -0.3016    5.7673    0.0000 C   0  0  0  0  0  0  0  0  0  0  0  0
    3.6075    3.5367    0.0000 C   0  0  0  0  0  0  0  0  0  0  0  0
   -5.4838   -4.7340    0.0000 C   0  0  0  0  0  0  0  0  0  0  0  0
   -5.4737   -3.2301    0.0000 C   0  0  0  0  0  0  0  0  0  0  0  0
   -6.9012   -2.7556    0.0000 C   0  0  0  0  0  0  0  0  0  0  0  0
   -7.7933   -3.9667    0.0000 N   0  0  0  0  0  0  0  0  0  0  0  0
   -6.9174   -5.1892    0.0000 N   0  0  0  0  0  0  0  0  0  0  0  0
   -7.3549   -1.3260    0.0000 N   0  0  0  0  0  0  0  0  0  0  0  0
  6  1  1  0  0  0  0
 12 13  2  0  0  0  0
  1  2  2  0  0  0  0
 12 14  1  0  0  0  0
  7 23  2  0  0  0  0
 14 15  1  0  0  0  0
  3  4  2  0  0  0  0
 15 16  2  0  0  0  0
 22  8  2  0  0  0  0
 16 17  1  0  0  0  0
 17 18  2  0  0  0  0
  8  9  1  0  0  0  0
 18 19  1  0  0  0  0
  4  5  1  0  0  0  0
 19 20  2  0  0  0  0
 20 15  1  0  0  0  0
  9 10  2  0  0  0  0
 17 21  1  0  0  0  0
 22 23  1  0  0  0  0
 10  7  1  0  0  0  0
  3  7  1  0  0  0  0
  2  3  1  0  0  0  0
  6 11  1  0  0  0  0
  5  6  2  0  0  0  0
 23 24  1  0  0  0  0
 24 25  2  0  0  0  0
 25 26  1  0  0  0  0
 26 22  1  0  0  0  0
 11 12  1  0  0  0  0
 24 27  1  0  0  0  0
M  END
> <Value>
5.899998417198648

> <Relation>
<

> <SourceURI>
mol:CHEMBL220057

$$$$

Generated by Molecular Materials Informatics

 21 24  0  0  0  0  0  0  0  0999 V2000
   -0.6213   -2.7803    0.0000 C   0  0  0  0  0  0  0  0  0  0  0  0
   -0.6233   -4.2846    0.0000 C   0  0  0  0  0  0  0  0  0  0  0  0
    0.6765   -5.0354    0.0000 C   0  0  0  0  0  0  0  0  0  0  0  0
    0.6732   -2.0298    0.0000 C   0  0  0  0  0  0  0  0  0  0  0  0
    1.9738   -2.7738    0.0000 C   0  0  0  0  0  0  0  0  0  0  0  0
    1.9744   -4.2764    0.0000 C   0  0  0  0  0  0  0  0  0  0  0  0
    4.2866   -3.5242    0.0000 N   0  0  0  0  0  0  0  0  0  0  0  0
    3.4028   -2.3092    0.0000 C   0  0  0  0  0  0  0  0  0  0  0  0
   -1.9132   -2.0229    0.0000 C   0  0  0  0  0  0  0  0  0  0  0  0
   -2.0703   -0.5312    0.0000 N   0  0  0  0  0  0  0  0  0  0  0  0
   -3.2831   -2.6332    0.0000 C   0  0  0  0  0  0  0  0  0  0  0  0
   -4.2874   -1.5191    0.0000 S   0  0  0  0  0  0  0  0  0  0  0  0
   -3.5398   -0.2181    0.0000 C   0  0  0  0  0  0  0  0  0  0  0  0
   -3.3903    2.4459    0.0000 C   0  0  0  0  0  0  0  0  0  0  0  0
   -1.8937    2.4337    0.0000 C   0  0  0  0  0  0  0  0  0  0  0  0
   -1.1374    3.7276    0.0000 C   0  0  0  0  0  0  0  0  0  0  0  0
   -1.8814    5.0320    0.0000 C   0  0  0  0  0  0  0  0  0  0  0  0
   -3.3891    5.0344    0.0000 C   0  0  0  0  0  0  0  0  0  0  0  0
   -4.1383    3.7394    0.0000 C   0  0  0  0  0  0  0  0  0  0  0  0
   -4.1494    1.1521    0.0000 N   0  0  0  0  0  0  0  0  0  0  0  0
    3.4023   -4.7360    0.0000 N   0  0  0  0  0  0  0  0  0  0  0  0
  1  2  2  0  0  0  0
  2  3  1  0  0  0  0
  3  6  2  0  0  0  0
  5  4  2  0  0  0  0
  4  1  1  0  0  0  0
  5  6  1  0  0  0  0
  7  8  2  0  0  0  0
  8  5  1  0  0  0  0
  9 10  1  0  0  0  0
 10 13  2  0  0  0  0
 12 11  1  0  0  0  0
 11  9  2  0  0  0  0
  1  9  1  0  0  0  0
 12 13  1  0  0  0  0
 14 15  2  0  0  0  0
 15 16  1  0  0  0  0
 16 17  2  0  0  0  0
 17 18  1  0  0  0  0
 18 19  2  0  0  0  0
 19 14  1  0  0  0  0
 13 20  1  0  0  0  0
 14 20  1  0  0  0  0
  6 21  1  0  0  0  0
  7 21  1  0  0  0  0
M  END
> <Value>
5.899998417198648

> <Relation>
<

> <SourceURI>
mol:CHEMBL1682545

$$$$
