
SketchEl molfile

 20 22  0  0  0  0  0  0  0  0999 V2000
    0.0000    0.9967    0.0000 C   0  0  0  0  0  0  0  0  0  0  0  0
    0.9899    0.0067    0.0000 C   0  0  0  0  0  0  0  0  0  0  0  0
    2.2063    0.7000    0.0000 C   0  0  0  0  0  0  0  0  0  0  0  0
    3.6061    0.7000    0.0000 C   0  0  0  0  0  0  0  0  0  0  0  0
    2.6163    1.6901    0.0000 C   0  0  0  0  0  0  0  0  0  0  0  0
    1.3998    0.9967    0.0000 C   0  0  0  0  0  0  0  0  0  0  0  0
    4.8186    0.0000    0.0000 N   0  0  0  0  0  0  0  0  0  0  0  0
    6.0310    0.7000    0.0000 C   0  0  0  0  0  0  0  0  0  0  0  0
    7.2434    0.0000    0.0000 N   0  0  0  0  0  0  0  0  0  0  0  0
    6.0310    2.1000    0.0000 O   0  0  0  0  0  0  0  0  0  0  0  0
    8.4559    0.7000    0.0000 C   0  0  0  0  0  0  0  0  0  0  0  0
    9.6683    0.0000    0.0000 C   0  0  0  0  0  0  0  0  0  0  0  0
   10.8807    0.7000    0.0000 C   0  0  0  0  0  0  0  0  0  0  0  0
   10.8807    2.1000    0.0000 C   0  0  0  0  0  0  0  0  0  0  0  0
    9.6683    2.8000    0.0000 C   0  0  0  0  0  0  0  0  0  0  0  0
    8.4559    2.1000    0.0000 C   0  0  0  0  0  0  0  0  0  0  0  0
   12.0932    0.0000    0.0000 C   0  0  0  0  0  0  0  0  0  0  0  0
   13.3056    0.7000    0.0000 C   0  0  0  0  0  0  0  0  0  0  0  0
   13.3056    2.1000    0.0000 C   0  0  0  0  0  0  0  0  0  0  0  0
   12.0932    2.8000    0.0000 C   0  0  0  0  0  0  0  0  0  0  0  0
  1  2  1  0  0  0  0
  2  3  1  0  0  0  0
  3  4  1  0  0  0  0
  4  5  1  0  0  0  0
  5  6  1  0  0  0  0
  6  1  1  0  0  0  0
  4  7  1  0  0  0  0
  7  8  1  0  0  0  0
  8  9  1  0  0  0  0
  8 10  2  0  0  0  0
  9 11  1  0  0  0  0
 11 12  2  0  0  0  0
 12 13  1  0  0  0  0
 13 14  2  0  0  0  0
 14 15  1  0  0  0  0
 15 16  2  0  0  0  0
 16 11  1  0  0  0  0
 13 17  1  0  0  0  0
 17 18  2  0  0  0  0
 18 19  1  0  0  0  0
 19 20  2  0  0  0  0
 20 14  1  0  0  0  0
M  END
> <Molecule Name>
998

> <CDD Number>
CDD-16259

> <Human_sEH_IC50_uM>
3.7

> <Mouse_sEH_IC50_uM>
0.1

$$$$

SketchEl molfile

 36 38  0  0  0  0  0  0  0  0999 V2000
    7.7514    2.5274    0.0000 N   0  0  0  0  0  0  0  0  0  0  0  0
    8.1138    1.1751    0.0000 C   0  0  0  0  0  0  0  0  0  0  0  0
    9.5119    1.1018    0.0000 C   0  0  0  0  0  0  0  0  0  0  0  0
   10.0136    2.4088    0.0000 C   0  0  0  0  0  0  0  0  0  0  0  0
    8.9256    3.2899    0.0000 C   0  0  0  0  0  0  0  0  0  0  0  0
   10.5018    0.1119    0.0000 N   0  0  0  0  0  0  0  0  0  0  0  0
   11.7142    0.8119    0.0000 C   0  0  0  0  0  0  0  0  0  0  0  0
   12.9267    0.1119    0.0000 N   0  0  0  0  0  0  0  0  0  0  0  0
   11.7142    2.2119    0.0000 O   0  0  0  0  0  0  0  0  0  0  0  0
    6.3991    2.8897    0.0000 C   0  0  0  0  0  0  0  0  0  0  0  0
    6.0368    4.2420    0.0000 C   0  0  0  0  0  0  0  0  0  0  0  0
    4.6845    4.6044    0.0000 C   0  0  0  0  0  0  0  0  0  0  0  0
    3.6945    3.6144    0.0000 C   0  0  0  0  0  0  0  0  0  0  0  0
    4.0569    2.2621    0.0000 C   0  0  0  0  0  0  0  0  0  0  0  0
    5.4092    1.8998    0.0000 C   0  0  0  0  0  0  0  0  0  0  0  0
    3.2944    1.0880    0.0000 N   0  0  0  0  0  0  0  0  0  0  0  0
    4.1754    0.0000    0.0000 O   0  0  0  0  0  0  0  0  0  0  0  0
    5.4825    0.5017    0.0000 N   0  0  0  0  0  0  0  0  0  0  0  0
    2.3422    3.9768    0.0000 S   0  0  0  0  0  0  0  0  0  0  0  0
    1.9799    2.6245    0.0000 O   0  0  0  0  0  0  0  0  0  0  0  0
    2.7046    5.3291    0.0000 O   0  0  0  0  0  0  0  0  0  0  0  0
    0.9899    4.3391    0.0000 N   0  0  0  0  0  0  0  0  0  0  0  0
    0.0000    3.3492    0.0000 C   0  0  0  0  0  0  0  0  0  0  0  0
    0.6276    5.6914    0.0000 C   0  0  0  0  0  0  0  0  0  0  0  0
   14.1391    0.8119    0.0000 C   0  0  0  0  0  0  0  0  0  0  0  0
   15.3516    0.1119    0.0000 C   0  0  0  0  0  0  0  0  0  0  0  0
   16.5640    0.8119    0.0000 C   0  0  0  0  0  0  0  0  0  0  0  0
   17.7764    0.1119    0.0000 C   0  0  0  0  0  0  0  0  0  0  0  0
   18.9889    0.8119    0.0000 C   0  0  0  0  0  0  0  0  0  0  0  0
   20.2013    0.1119    0.0000 C   0  0  0  0  0  0  0  0  0  0  0  0
   21.4137    0.8119    0.0000 C   0  0  0  0  0  0  0  0  0  0  0  0
   22.6262    0.1119    0.0000 C   0  0  0  0  0  0  0  0  0  0  0  0
   23.8386    0.8119    0.0000 C   0  0  0  0  0  0  0  0  0  0  0  0
   25.0510    0.1119    0.0000 C   0  0  0  0  0  0  0  0  0  0  0  0
   26.2635    0.8119    0.0000 C   0  0  0  0  0  0  0  0  0  0  0  0
   27.4759    0.1119    0.0000 C   0  0  0  0  0  0  0  0  0  0  0  0
  1  2  1  0  0  0  0
  2  3  1  0  0  0  0
  3  4  1  0  0  0  0
  4  5  1  0  0  0  0
  5  1  1  0  0  0  0
  3  6  1  1  0  0  0
  6  7  1  0  0  0  0
  7  8  1  0  0  0  0
  7  9  2  0  0  0  0
  1 10  1  0  0  0  0
 10 11  2  0  0  0  0
 11 12  1  0  0  0  0
 12 13  2  0  0  0  0
 13 14  1  0  0  0  0
 14 15  1  0  0  0  0
 15 10  1  0  0  0  0
 14 16  2  0  0  0  0
 16 17  1  0  0  0  0
 17 18  1  0  0  0  0
 18 15  2  0  0  0  0
 13 19  1  0  0  0  0
 19 20  2  0  0  0  0
 19 21  2  0  0  0  0
 19 22  1  0  0  0  0
 22 23  1  0  0  0  0
 22 24  1  0  0  0  0
  8 25  1  0  0  0  0
 25 26  1  0  0  0  0
 26 27  1  0  0  0  0
 27 28  1  0  0  0  0
 28 29  1  0  0  0  0
 29 30  1  0  0  0  0
 30 31  1  0  0  0  0
 31 32  1  0  0  0  0
 32 33  1  0  0  0  0
 33 34  1  0  0  0  0
 34 35  1  0  0  0  0
 35 36  1  0  0  0  0
M  END
> <Molecule Name>
996

> <CDD Number>
CDD-16257

> <Human_sEH_IC50_uM>
0.12

> <Mouse_sEH_IC50_uM>
0.17

$$$$

SketchEl molfile

 18 18  0  0  0  0  0  0  0  0999 V2000
    0.0000    2.1000    0.0000 C   0  0  0  0  0  0  0  0  0  0  0  0
    0.0000    0.7000    0.0000 C   0  0  0  0  0  0  0  0  0  0  0  0
    1.2124    0.0000    0.0000 C   0  0  0  0  0  0  0  0  0  0  0  0
    2.4249    0.7000    0.0000 C   0  0  0  0  0  0  0  0  0  0  0  0
    2.4249    2.1000    0.0000 C   0  0  0  0  0  0  0  0  0  0  0  0
    1.2124    2.8000    0.0000 C   0  0  0  0  0  0  0  0  0  0  0  0
    3.6373    2.8000    0.0000 C   0  0  0  0  0  0  0  0  0  0  0  0
    4.8497    2.1000    0.0000 N   0  0  0  0  0  0  0  0  0  0  0  0
    3.6373    4.2000    0.0000 C   0  0  0  0  0  0  0  0  0  0  0  0
    2.4249    4.9000    0.0000 O   0  0  0  0  0  0  0  0  0  0  0  0
    6.0622    2.8000    0.0000 C   0  0  0  0  0  0  0  0  0  0  0  0
    7.2746    2.1000    0.0000 N   0  0  0  0  0  0  0  0  0  0  0  0
    6.0622    4.2000    0.0000 O   0  0  0  0  0  0  0  0  0  0  0  0
    8.4870    2.8000    0.0000 C   0  0  0  0  0  0  0  0  0  0  0  0
    9.6995    2.1000    0.0000 C   0  0  0  0  0  0  0  0  0  0  0  0
   10.9119    2.8000    0.0000 C   0  0  0  0  0  0  0  0  0  0  0  0
   12.1244    2.1000    0.0000 C   0  0  0  0  0  0  0  0  0  0  0  0
   13.3368    2.8000    0.0000 C   0  0  0  0  0  0  0  0  0  0  0  0
  1  2  2  0  0  0  0
  2  3  1  0  0  0  0
  3  4  2  0  0  0  0
  4  5  1  0  0  0  0
  5  6  2  0  0  0  0
  6  1  1  0  0  0  0
  5  7  1  0  0  0  0
  7  8  1  0  0  0  0
  7  9  1  0  0  0  0
  9 10  1  0  0  0  0
  8 11  1  0  0  0  0
 11 12  1  0  0  0  0
 11 13  2  0  0  0  0
 12 14  1  0  0  0  0
 14 15  1  0  0  0  0
 15 16  1  0  0  0  0
 16 17  1  0  0  0  0
 17 18  1  0  0  0  0
M  END
> <Molecule Name>
995

> <CDD Number>
CDD-16256

> <Human_sEH_IC50_uM>
22.1

> <Mouse_sEH_IC50_uM>
11.0

$$$$

SketchEl molfile

 24 26  0  0  0  0  0  0  0  0999 V2000
    2.7836    3.0265    0.0000 C   0  0  0  0  0  0  0  0  0  0  0  0
    1.3836    3.0265    0.0000 C   0  0  0  0  0  0  0  0  0  0  0  0
    1.0130    1.6760    0.0000 C   0  0  0  0  0  0  0  0  0  0  0  0
    0.0000    0.7000    0.0000 C   0  0  0  0  0  0  0  0  0  0  0  0
    1.3836    0.7000    0.0000 C   0  0  0  0  0  0  0  0  0  0  0  0
    1.7500    2.0466    0.0000 C   0  0  0  0  0  0  0  0  0  0  0  0
    3.9941    2.3265    0.0000 C   0  0  0  0  0  0  0  0  0  0  0  0
    3.6319    0.9760    0.0000 C   0  0  0  0  0  0  0  0  0  0  0  0
    2.5941    0.0000    0.0000 C   0  0  0  0  0  0  0  0  0  0  0  0
    2.2235    0.9760    0.0000 C   0  0  0  0  0  0  0  0  0  0  0  0
    4.8424    0.2760    0.0000 N   0  0  0  0  0  0  0  0  0  0  0  0
    6.0529    0.9760    0.0000 C   0  0  0  0  0  0  0  0  0  0  0  0
    6.0529    2.3760    0.0000 O   0  0  0  0  0  0  0  0  0  0  0  0
    7.2635    0.2760    0.0000 N   0  0  0  0  0  0  0  0  0  0  0  0
    8.4743    0.9760    0.0000 C   0  0  0  0  0  0  0  0  0  0  0  0
    9.6871    0.2767    0.0000 C   0  0  0  0  0  0  0  0  0  0  0  0
   10.8992    0.9774    0.0000 C   0  0  0  0  0  0  0  0  0  0  0  0
   12.1120    0.2781    0.0000 C   0  0  0  0  0  0  0  0  0  0  0  0
   13.3241    0.9788    0.0000 C   0  0  0  0  0  0  0  0  0  0  0  0
   14.5369    0.2795    0.0000 C   0  0  0  0  0  0  0  0  0  0  0  0
   13.3233    2.3788    0.0000 O   0  0  0  0  0  0  0  0  0  0  0  0
   15.7489    0.9801    0.0000 C   0  0  0  0  0  0  0  0  0  0  0  0
   16.9618    0.2808    0.0000 C   0  0  0  0  0  0  0  0  0  0  0  0
   18.1738    0.9815    0.0000 C   0  0  0  0  0  0  0  0  0  0  0  0
  1  2  1  0  0  0  0
  2  3  1  0  0  0  0
  3  4  1  0  0  0  0
  4  5  1  0  0  0  0
  5  6  1  0  0  0  0
  1  6  1  0  0  0  0
  1  7  1  0  0  0  0
  7  8  1  0  0  0  0
  5  9  1  0  0  0  0
  8  9  1  0  0  0  0
  3 10  1  0  0  0  0
  8 10  1  0  0  0  0
  8 11  1  0  0  0  0
 11 12  1  0  0  0  0
 12 13  2  0  0  0  0
 12 14  1  0  0  0  0
 14 15  1  0  0  0  0
 15 16  1  0  0  0  0
 16 17  1  0  0  0  0
 17 18  1  0  0  0  0
 18 19  1  0  0  0  0
 19 20  1  0  0  0  0
 19 21  1  0  0  0  0
 20 22  1  0  0  0  0
 22 23  1  0  0  0  0
 23 24  1  0  0  0  0
M  END
> <Molecule Name>
994

> <CDD Number>
CDD-16255

> <Human_sEH_IC50_uM>
0.1

> <Mouse_sEH_IC50_uM>
0.05

$$$$

SketchEl molfile

 18 19  0  0  0  0  0  0  0  0999 V2000
    0.0000    0.9967    0.0000 C   0  0  0  0  0  0  0  0  0  0  0  0
    0.9899    0.0067    0.0000 C   0  0  0  0  0  0  0  0  0  0  0  0
    2.2063    0.7000    0.0000 C   0  0  0  0  0  0  0  0  0  0  0  0
    3.6061    0.7000    0.0000 C   0  0  0  0  0  0  0  0  0  0  0  0
    2.6163    1.6901    0.0000 C   0  0  0  0  0  0  0  0  0  0  0  0
    1.3998    0.9967    0.0000 C   0  0  0  0  0  0  0  0  0  0  0  0
    4.8186    0.0000    0.0000 C   0  0  0  0  0  0  0  0  0  0  0  0
    6.0310    0.7000    0.0000 C   0  0  0  0  0  0  0  0  0  0  0  0
    7.2434    0.0000    0.0000 N   0  0  0  0  0  0  0  0  0  0  0  0
    6.0310    2.1000    0.0000 O   0  0  0  0  0  0  0  0  0  0  0  0
    8.4559    0.7000    0.0000 C   0  0  0  0  0  0  0  0  0  0  0  0
    9.6683    0.0000    0.0000 C   0  0  0  0  0  0  0  0  0  0  0  0
   10.8807    0.7000    0.0000 C   0  0  0  0  0  0  0  0  0  0  0  0
   12.0932    0.0000    0.0000 C   0  0  0  0  0  0  0  0  0  0  0  0
   13.3056    0.7000    0.0000 C   0  0  0  0  0  0  0  0  0  0  0  0
   13.3056    2.1000    0.0000 C   0  0  0  0  0  0  0  0  0  0  0  0
   12.0932    2.8000    0.0000 C   0  0  0  0  0  0  0  0  0  0  0  0
   10.8807    2.1000    0.0000 C   0  0  0  0  0  0  0  0  0  0  0  0
  1  2  1  0  0  0  0
  2  3  1  0  0  0  0
  3  4  1  0  0  0  0
  4  5  1  0  0  0  0
  5  6  1  0  0  0  0
  6  1  1  0  0  0  0
  4  7  1  0  0  0  0
  7  8  1  0  0  0  0
  8  9  1  0  0  0  0
  8 10  2  0  0  0  0
  9 11  1  0  0  0  0
 11 12  1  0  0  0  0
 12 13  1  0  0  0  0
 13 14  2  0  0  0  0
 14 15  1  0  0  0  0
 15 16  2  0  0  0  0
 16 17  1  0  0  0  0
 17 18  2  0  0  0  0
 18 13  1  0  0  0  0
M  END
> <Molecule Name>
993

> <CDD Number>
CDD-16254

> <Human_sEH_IC50_uM>
4.0

> <Mouse_sEH_IC50_uM>
2.1

$$$$

SketchEl molfile

 23 26  0  0  0  0  0  0  0  0999 V2000
    2.7836    4.8474    0.0000 C   0  0  0  0  0  0  0  0  0  0  0  0
    1.3836    4.8474    0.0000 C   0  0  0  0  0  0  0  0  0  0  0  0
    1.0130    3.4969    0.0000 C   0  0  0  0  0  0  0  0  0  0  0  0
    0.0000    2.5209    0.0000 C   0  0  0  0  0  0  0  0  0  0  0  0
    1.3836    2.5209    0.0000 C   0  0  0  0  0  0  0  0  0  0  0  0
    1.7500    3.8675    0.0000 C   0  0  0  0  0  0  0  0  0  0  0  0
    3.9941    4.1474    0.0000 C   0  0  0  0  0  0  0  0  0  0  0  0
    3.6319    2.7969    0.0000 C   0  0  0  0  0  0  0  0  0  0  0  0
    2.5941    1.8209    0.0000 C   0  0  0  0  0  0  0  0  0  0  0  0
    2.2235    2.7969    0.0000 C   0  0  0  0  0  0  0  0  0  0  0  0
    4.8424    2.0969    0.0000 N   0  0  0  0  0  0  0  0  0  0  0  0
    6.0529    2.7969    0.0000 C   0  0  0  0  0  0  0  0  0  0  0  0
    6.0529    4.1969    0.0000 O   0  0  0  0  0  0  0  0  0  0  0  0
    7.2635    2.0969    0.0000 C   0  0  0  0  0  0  0  0  0  0  0  0
    8.4743    2.7969    0.0000 C   0  0  0  0  0  0  0  0  0  0  0  0
    9.6871    2.0976    0.0000 C   0  0  0  0  0  0  0  0  0  0  0  0
   10.8992    2.7983    0.0000 C   0  0  0  0  0  0  0  0  0  0  0  0
   12.1120    2.0990    0.0000 C   0  0  0  0  0  0  0  0  0  0  0  0
   12.1132    0.6990    0.0000 C   0  0  0  0  0  0  0  0  0  0  0  0
   13.3262    0.0000    0.0000 C   0  0  0  0  0  0  0  0  0  0  0  0
   14.5381    0.6990    0.0000 C   0  0  0  0  0  0  0  0  0  0  0  0
   14.5381    2.0990    0.0000 C   0  0  0  0  0  0  0  0  0  0  0  0
   13.3262    2.7979    0.0000 C   0  0  0  0  0  0  0  0  0  0  0  0
  1  2  1  0  0  0  0
  2  3  1  0  0  0  0
  3  4  1  0  0  0  0
  4  5  1  0  0  0  0
  5  6  1  0  0  0  0
  1  6  1  0  0  0  0
  1  7  1  0  0  0  0
  7  8  1  0  0  0  0
  5  9  1  0  0  0  0
  8  9  1  0  0  0  0
  3 10  1  0  0  0  0
  8 10  1  0  0  0  0
  8 11  1  0  0  0  0
 11 12  1  0  0  0  0
 12 13  2  0  0  0  0
 12 14  1  0  0  0  0
 14 15  1  0  0  0  0
 15 16  1  0  0  0  0
 16 17  1  0  0  0  0
 17 18  1  0  0  0  0
 18 19  2  0  0  0  0
 19 20  1  0  0  0  0
 20 21  2  0  0  0  0
 21 22  1  0  0  0  0
 22 23  2  0  0  0  0
 23 18  1  0  0  0  0
M  END
> <Molecule Name>
991

> <CDD Number>
CDD-16253

> <Human_sEH_IC50_uM>
0.99

> <Mouse_sEH_IC50_uM>
0.06

$$$$

SketchEl molfile

 24 26  0  0  0  0  0  0  0  0999 V2000
    2.7836    3.0265    0.0000 C   0  0  0  0  0  0  0  0  0  0  0  0
    1.3836    3.0265    0.0000 C   0  0  0  0  0  0  0  0  0  0  0  0
    1.0130    1.6760    0.0000 C   0  0  0  0  0  0  0  0  0  0  0  0
    0.0000    0.7000    0.0000 C   0  0  0  0  0  0  0  0  0  0  0  0
    1.3836    0.7000    0.0000 C   0  0  0  0  0  0  0  0  0  0  0  0
    1.7500    2.0466    0.0000 C   0  0  0  0  0  0  0  0  0  0  0  0
    3.9941    2.3265    0.0000 C   0  0  0  0  0  0  0  0  0  0  0  0
    3.6319    0.9760    0.0000 C   0  0  0  0  0  0  0  0  0  0  0  0
    2.5941    0.0000    0.0000 C   0  0  0  0  0  0  0  0  0  0  0  0
    2.2235    0.9760    0.0000 C   0  0  0  0  0  0  0  0  0  0  0  0
    4.8424    0.2760    0.0000 N   0  0  0  0  0  0  0  0  0  0  0  0
    6.0529    0.9760    0.0000 C   0  0  0  0  0  0  0  0  0  0  0  0
    6.0529    2.3760    0.0000 O   0  0  0  0  0  0  0  0  0  0  0  0
    7.2635    0.2760    0.0000 C   0  0  0  0  0  0  0  0  0  0  0  0
    8.4743    0.9760    0.0000 C   0  0  0  0  0  0  0  0  0  0  0  0
    9.6871    0.2767    0.0000 C   0  0  0  0  0  0  0  0  0  0  0  0
   10.8992    0.9774    0.0000 C   0  0  0  0  0  0  0  0  0  0  0  0
   12.1120    0.2781    0.0000 C   0  0  0  0  0  0  0  0  0  0  0  0
   13.3241    0.9788    0.0000 C   0  0  0  0  0  0  0  0  0  0  0  0
   14.5369    0.2795    0.0000 C   0  0  0  0  0  0  0  0  0  0  0  0
   15.7489    0.9801    0.0000 C   0  0  0  0  0  0  0  0  0  0  0  0
   16.9618    0.2808    0.0000 C   0  0  0  0  0  0  0  0  0  0  0  0
   18.1738    0.9815    0.0000 C   0  0  0  0  0  0  0  0  0  0  0  0
   19.3866    0.2822    0.0000 C   0  0  0  0  0  0  0  0  0  0  0  0
  1  2  1  0  0  0  0
  2  3  1  0  0  0  0
  3  4  1  0  0  0  0
  4  5  1  0  0  0  0
  5  6  1  0  0  0  0
  1  6  1  0  0  0  0
  1  7  1  0  0  0  0
  7  8  1  0  0  0  0
  5  9  1  0  0  0  0
  8  9  1  0  0  0  0
  3 10  1  0  0  0  0
  8 10  1  0  0  0  0
  8 11  1  0  0  0  0
 11 12  1  0  0  0  0
 12 13  2  0  0  0  0
 12 14  1  0  0  0  0
 14 15  1  0  0  0  0
 15 16  1  0  0  0  0
 16 17  1  0  0  0  0
 17 18  1  0  0  0  0
 18 19  1  0  0  0  0
 19 20  1  0  0  0  0
 20 21  1  0  0  0  0
 21 22  1  0  0  0  0
 22 23  1  0  0  0  0
 23 24  1  0  0  0  0
M  END
> <Molecule Name>
989

> <CDD Number>
CDD-16252

> <Human_sEH_IC50_uM>
5.0

> <Mouse_sEH_IC50_uM>
0.06

$$$$

SketchEl molfile

 22 22  0  0  0  0  0  0  0  0999 V2000
    1.2124    3.5000    0.0000 C   0  0  0  0  0  0  0  0  0  0  0  0
    1.2124    2.1000    0.0000 C   0  0  0  0  0  0  0  0  0  0  0  0
    2.4249    1.4000    0.0000 C   0  0  0  0  0  0  0  0  0  0  0  0
    3.6373    2.1000    0.0000 C   0  0  0  0  0  0  0  0  0  0  0  0
    3.6373    3.5000    0.0000 C   0  0  0  0  0  0  0  0  0  0  0  0
    2.4249    4.2000    0.0000 C   0  0  0  0  0  0  0  0  0  0  0  0
    0.0000    1.4000    0.0000 Cl  0  0  0  0  0  0  0  0  0  0  0  0
    4.8497    1.4000    0.0000 C   0  0  0  0  0  0  0  0  0  0  0  0
    6.0622    2.1000    0.0000 C   0  0  0  0  0  0  0  0  0  0  0  0
    7.2746    1.4000    0.0000 N   0  0  0  0  0  0  0  0  0  0  0  0
    6.0622    3.5000    0.0000 O   0  0  0  0  0  0  0  0  0  0  0  0
    8.4870    2.1000    0.0000 C   0  0  0  0  0  0  0  0  0  0  0  0
    9.6995    1.4000    0.0000 C   0  0  0  0  0  0  0  0  0  0  0  0
   10.9119    2.1000    0.0000 C   0  0  0  0  0  0  0  0  0  0  0  0
   12.1244    1.4000    0.0000 C   0  0  0  0  0  0  0  0  0  0  0  0
   13.3368    2.1000    0.0000 O   0  0  0  0  0  0  0  0  0  0  0  0
   12.1244    0.0000    0.0000 O   0  0  0  0  0  0  0  0  0  0  0  0
   14.5492    1.4000    0.0000 C   0  0  0  0  0  0  0  0  0  0  0  0
   15.7617    2.1000    0.0000 C   0  0  0  0  0  0  0  0  0  0  0  0
   16.9741    1.4000    0.0000 C   0  0  0  0  0  0  0  0  0  0  0  0
   18.1865    2.1000    0.0000 C   0  0  0  0  0  0  0  0  0  0  0  0
   19.3990    1.4000    0.0000 C   0  0  0  0  0  0  0  0  0  0  0  0
  1  2  2  0  0  0  0
  2  3  1  0  0  0  0
  3  4  2  0  0  0  0
  4  5  1  0  0  0  0
  5  6  2  0  0  0  0
  6  1  1  0  0  0  0
  2  7  1  0  0  0  0
  4  8  1  0  0  0  0
  8  9  1  0  0  0  0
  9 10  1  0  0  0  0
  9 11  2  0  0  0  0
 10 12  1  0  0  0  0
 12 13  1  0  0  0  0
 13 14  1  0  0  0  0
 14 15  1  0  0  0  0
 15 16  1  0  0  0  0
 15 17  2  0  0  0  0
 16 18  1  0  0  0  0
 18 19  1  0  0  0  0
 19 20  1  0  0  0  0
 20 21  1  0  0  0  0
 21 22  1  0  0  0  0
M  END
> <Molecule Name>
988

> <CDD Number>
CDD-16251

> <Human_sEH_IC50_uM>
5.0

> <Mouse_sEH_IC50_uM>
2.9

$$$$

SketchEl molfile

 22 22  0  0  0  0  0  0  0  0999 V2000
    1.2124    3.5000    0.0000 C   0  0  0  0  0  0  0  0  0  0  0  0
    1.2124    2.1000    0.0000 C   0  0  0  0  0  0  0  0  0  0  0  0
    2.4249    1.4000    0.0000 C   0  0  0  0  0  0  0  0  0  0  0  0
    3.6373    2.1000    0.0000 C   0  0  0  0  0  0  0  0  0  0  0  0
    3.6373    3.5000    0.0000 C   0  0  0  0  0  0  0  0  0  0  0  0
    2.4249    4.2000    0.0000 C   0  0  0  0  0  0  0  0  0  0  0  0
    0.0000    1.4000    0.0000 Cl  0  0  0  0  0  0  0  0  0  0  0  0
    4.8497    1.4000    0.0000 N   0  0  0  0  0  0  0  0  0  0  0  0
    6.0622    2.1000    0.0000 C   0  0  0  0  0  0  0  0  0  0  0  0
    7.2746    1.4000    0.0000 C   0  0  0  0  0  0  0  0  0  0  0  0
    6.0622    3.5000    0.0000 O   0  0  0  0  0  0  0  0  0  0  0  0
    8.4870    2.1000    0.0000 C   0  0  0  0  0  0  0  0  0  0  0  0
    9.6995    1.4000    0.0000 C   0  0  0  0  0  0  0  0  0  0  0  0
   10.9119    2.1000    0.0000 C   0  0  0  0  0  0  0  0  0  0  0  0
   12.1244    1.4000    0.0000 C   0  0  0  0  0  0  0  0  0  0  0  0
   13.3368    2.1000    0.0000 O   0  0  0  0  0  0  0  0  0  0  0  0
   12.1244    0.0000    0.0000 O   0  0  0  0  0  0  0  0  0  0  0  0
   14.5492    1.4000    0.0000 C   0  0  0  0  0  0  0  0  0  0  0  0
   15.7617    2.1000    0.0000 C   0  0  0  0  0  0  0  0  0  0  0  0
   16.9741    1.4000    0.0000 C   0  0  0  0  0  0  0  0  0  0  0  0
   18.1865    2.1000    0.0000 C   0  0  0  0  0  0  0  0  0  0  0  0
   19.3990    1.4000    0.0000 C   0  0  0  0  0  0  0  0  0  0  0  0
  1  2  2  0  0  0  0
  2  3  1  0  0  0  0
  3  4  2  0  0  0  0
  4  5  1  0  0  0  0
  5  6  2  0  0  0  0
  6  1  1  0  0  0  0
  2  7  1  0  0  0  0
  4  8  1  0  0  0  0
  8  9  1  0  0  0  0
  9 10  1  0  0  0  0
  9 11  2  0  0  0  0
 10 12  1  0  0  0  0
 12 13  1  0  0  0  0
 13 14  1  0  0  0  0
 14 15  1  0  0  0  0
 15 16  1  0  0  0  0
 15 17  2  0  0  0  0
 16 18  1  0  0  0  0
 18 19  1  0  0  0  0
 19 20  1  0  0  0  0
 20 21  1  0  0  0  0
 21 22  1  0  0  0  0
M  END
> <Molecule Name>
987

> <CDD Number>
CDD-16250

> <Human_sEH_IC50_uM>
5.9

> <Mouse_sEH_IC50_uM>
1.7

$$$$

SketchEl molfile

 40 44  0  0  0  0  0  0  0  0999 V2000
    2.7836    3.4436    0.0000 C   0  0  0  0  0  0  0  0  0  0  0  0
    1.3836    3.4436    0.0000 C   0  0  0  0  0  0  0  0  0  0  0  0
    1.0130    2.0931    0.0000 C   0  0  0  0  0  0  0  0  0  0  0  0
    0.0000    1.1171    0.0000 C   0  0  0  0  0  0  0  0  0  0  0  0
    1.3836    1.1171    0.0000 C   0  0  0  0  0  0  0  0  0  0  0  0
    1.7500    2.4637    0.0000 C   0  0  0  0  0  0  0  0  0  0  0  0
    3.9941    2.7436    0.0000 C   0  0  0  0  0  0  0  0  0  0  0  0
    3.6319    1.3931    0.0000 C   0  0  0  0  0  0  0  0  0  0  0  0
    2.5941    0.4171    0.0000 C   0  0  0  0  0  0  0  0  0  0  0  0
    2.2235    1.3931    0.0000 C   0  0  0  0  0  0  0  0  0  0  0  0
    4.8424    0.6931    0.0000 N   0  0  0  0  0  0  0  0  0  0  0  0
    6.0529    1.3931    0.0000 C   0  0  0  0  0  0  0  0  0  0  0  0
    6.0529    2.7931    0.0000 O   0  0  0  0  0  0  0  0  0  0  0  0
    7.2635    0.6931    0.0000 N   0  0  0  0  0  0  0  0  0  0  0  0
    8.4743    1.3931    0.0000 C   0  0  0  0  0  0  0  0  0  0  0  0
    9.6871    0.6938    0.0000 C   0  0  0  0  0  0  0  0  0  0  0  0
   10.8992    1.3945    0.0000 C   0  0  0  0  0  0  0  0  0  0  0  0
   12.1120    0.6952    0.0000 C   0  0  0  0  0  0  0  0  0  0  0  0
   13.3241    1.3959    0.0000 C   0  0  0  0  0  0  0  0  0  0  0  0
   14.5369    0.6966    0.0000 O   0  0  0  0  0  0  0  0  0  0  0  0
   15.7489    1.3972    0.0000 C   0  0  0  0  0  0  0  0  0  0  0  0
   16.9618    0.6979    0.0000 C   0  0  0  0  0  0  0  0  0  0  0  0
   18.1738    1.3986    0.0000 C   0  0  0  0  0  0  0  0  0  0  0  0
   19.3866    0.6993    0.0000 N   0  0  0  0  0  0  0  0  0  0  0  0
   20.5987    1.4000    0.0000 S   0  0  0  0  0  0  0  0  0  0  0  0
   20.5987    2.8000    0.0000 O   0  0  0  0  0  0  0  0  0  0  0  0
   20.5987    0.0000    0.0000 O   0  0  0  0  0  0  0  0  0  0  0  0
   21.9987    1.4000    0.0000 C   0  0  0  0  0  0  0  0  0  0  0  0
   22.6987    0.1876    0.0000 C   0  0  0  0  0  0  0  0  0  0  0  0
   24.0987    0.1876    0.0000 C   0  0  0  0  0  0  0  0  0  0  0  0
   24.7987    1.4000    0.0000 C   0  0  0  0  0  0  0  0  0  0  0  0
   24.0987    2.6124    0.0000 C   0  0  0  0  0  0  0  0  0  0  0  0
   22.6987    2.6124    0.0000 C   0  0  0  0  0  0  0  0  0  0  0  0
   24.7987    3.8249    0.0000 C   0  0  0  0  0  0  0  0  0  0  0  0
   24.0987    5.0373    0.0000 C   0  0  0  0  0  0  0  0  0  0  0  0
   22.6987    5.0373    0.0000 C   0  0  0  0  0  0  0  0  0  0  0  0
   21.9987    3.8249    0.0000 C   0  0  0  0  0  0  0  0  0  0  0  0
   26.1987    3.8249    0.0000 N   0  0  0  0  0  0  0  0  0  0  0  0
   26.8987    5.0373    0.0000 C   0  0  0  0  0  0  0  0  0  0  0  0
   26.8987    2.6124    0.0000 C   0  0  0  0  0  0  0  0  0  0  0  0
  1  2  1  0  0  0  0
  2  3  1  0  0  0  0
  3  4  1  0  0  0  0
  4  5  1  0  0  0  0
  5  6  1  0  0  0  0
  1  6  1  0  0  0  0
  1  7  1  0  0  0  0
  7  8  1  0  0  0  0
  5  9  1  0  0  0  0
  8  9  1  0  0  0  0
  3 10  1  0  0  0  0
  8 10  1  0  0  0  0
  8 11  1  0  0  0  0
 11 12  1  0  0  0  0
 12 13  2  0  0  0  0
 12 14  1  0  0  0  0
 14 15  1  0  0  0  0
 15 16  1  0  0  0  0
 16 17  1  0  0  0  0
 17 18  1  0  0  0  0
 18 19  1  0  0  0  0
 19 20  1  0  0  0  0
 20 21  1  0  0  0  0
 21 22  1  0  0  0  0
 22 23  1  0  0  0  0
 23 24  1  0  0  0  0
 24 25  1  0  0  0  0
 25 26  2  0  0  0  0
 25 27  2  0  0  0  0
 25 28  1  0  0  0  0
 28 29  2  0  0  0  0
 29 30  1  0  0  0  0
 30 31  2  0  0  0  0
 31 32  1  0  0  0  0
 32 33  2  0  0  0  0
 33 28  1  0  0  0  0
 32 34  1  0  0  0  0
 34 35  2  0  0  0  0
 35 36  1  0  0  0  0
 36 37  2  0  0  0  0
 37 33  1  0  0  0  0
 34 38  1  0  0  0  0
 38 39  1  0  0  0  0
 38 40  1  0  0  0  0
M  END
> <Molecule Name>
986

> <CDD Number>
CDD-16249

> <Human_sEH_IC50_uM>
0.29

> <Mouse_sEH_IC50_uM>
0.05

$$$$

SketchEl molfile

 32 35  0  0  0  0  0  0  0  0999 V2000
    2.7836    4.4471    0.0000 C   0  0  0  0  0  0  0  0  0  0  0  0
    1.3836    4.4471    0.0000 C   0  0  0  0  0  0  0  0  0  0  0  0
    1.0130    3.0967    0.0000 C   0  0  0  0  0  0  0  0  0  0  0  0
    0.0000    2.1207    0.0000 C   0  0  0  0  0  0  0  0  0  0  0  0
    1.3836    2.1207    0.0000 C   0  0  0  0  0  0  0  0  0  0  0  0
    1.7500    3.4673    0.0000 C   0  0  0  0  0  0  0  0  0  0  0  0
    3.9941    3.7471    0.0000 C   0  0  0  0  0  0  0  0  0  0  0  0
    3.6319    2.3967    0.0000 C   0  0  0  0  0  0  0  0  0  0  0  0
    2.5941    1.4207    0.0000 C   0  0  0  0  0  0  0  0  0  0  0  0
    2.2235    2.3967    0.0000 C   0  0  0  0  0  0  0  0  0  0  0  0
    4.8424    1.6967    0.0000 N   0  0  0  0  0  0  0  0  0  0  0  0
    6.0529    2.3967    0.0000 C   0  0  0  0  0  0  0  0  0  0  0  0
    6.0529    3.7967    0.0000 O   0  0  0  0  0  0  0  0  0  0  0  0
    7.2635    1.6967    0.0000 N   0  0  0  0  0  0  0  0  0  0  0  0
    8.4743    2.3967    0.0000 C   0  0  0  0  0  0  0  0  0  0  0  0
    9.4643    1.4067    0.0000 C   0  0  0  0  0  0  0  0  0  0  0  0
   10.6806    2.1000    0.0000 C   0  0  0  0  0  0  0  0  0  0  0  0
   12.0804    2.1000    0.0000 C   0  0  0  0  0  0  0  0  0  0  0  0
   11.0906    3.0901    0.0000 C   0  0  0  0  0  0  0  0  0  0  0  0
    9.8741    2.3967    0.0000 C   0  0  0  0  0  0  0  0  0  0  0  0
   13.2929    1.4000    0.0000 O   0  0  0  0  0  0  0  0  0  0  0  0
   14.5053    2.1000    0.0000 C   0  0  0  0  0  0  0  0  0  0  0  0
   15.7178    1.4000    0.0000 C   0  0  0  0  0  0  0  0  0  0  0  0
   16.9302    2.1000    0.0000 O   0  0  0  0  0  0  0  0  0  0  0  0
   18.1426    1.4000    0.0000 C   0  0  0  0  0  0  0  0  0  0  0  0
   19.3551    2.1000    0.0000 C   0  0  0  0  0  0  0  0  0  0  0  0
   20.5675    1.4000    0.0000 O   0  0  0  0  0  0  0  0  0  0  0  0
   21.7799    2.1000    0.0000 C   0  0  0  0  0  0  0  0  0  0  0  0
   22.9924    1.4000    0.0000 C   0  0  0  0  0  0  0  0  0  0  0  0
   24.2048    2.1000    0.0000 F   0  0  0  0  0  0  0  0  0  0  0  0
   22.9924    0.0000    0.0000 F   0  0  0  0  0  0  0  0  0  0  0  0
   24.2048    0.7000    0.0000 F   0  0  0  0  0  0  0  0  0  0  0  0
  1  2  1  0  0  0  0
  2  3  1  0  0  0  0
  3  4  1  0  0  0  0
  4  5  1  0  0  0  0
  5  6  1  0  0  0  0
  1  6  1  0  0  0  0
  1  7  1  0  0  0  0
  7  8  1  0  0  0  0
  5  9  1  0  0  0  0
  8  9  1  0  0  0  0
  3 10  1  0  0  0  0
  8 10  1  0  0  0  0
  8 11  1  0  0  0  0
 11 12  1  0  0  0  0
 12 13  2  0  0  0  0
 12 14  1  0  0  0  0
 14 15  1  0  0  0  0
 15 16  1  0  0  0  0
 16 17  1  0  0  0  0
 17 18  1  0  0  0  0
 18 19  1  0  0  0  0
 19 20  1  0  0  0  0
 20 15  1  0  0  0  0
 18 21  1  0  0  0  0
 21 22  1  0  0  0  0
 22 23  1  0  0  0  0
 23 24  1  0  0  0  0
 24 25  1  0  0  0  0
 25 26  1  0  0  0  0
 26 27  1  0  0  0  0
 27 28  1  0  0  0  0
 28 29  1  0  0  0  0
 29 30  1  0  0  0  0
 29 31  1  0  0  0  0
 29 32  1  0  0  0  0
M  END
> <Molecule Name>
985

> <CDD Number>
CDD-16248

> <Human_sEH_IC50_uM>
0.1

> <Mouse_sEH_IC50_uM>
0.05

$$$$

SketchEl molfile

 31 34  0  0  0  0  0  0  0  0999 V2000
    2.7836    3.0471    0.0000 C   0  0  0  0  0  0  0  0  0  0  0  0
    1.3836    3.0471    0.0000 C   0  0  0  0  0  0  0  0  0  0  0  0
    1.0130    1.6967    0.0000 C   0  0  0  0  0  0  0  0  0  0  0  0
    0.0000    0.7207    0.0000 C   0  0  0  0  0  0  0  0  0  0  0  0
    1.3836    0.7207    0.0000 C   0  0  0  0  0  0  0  0  0  0  0  0
    1.7500    2.0673    0.0000 C   0  0  0  0  0  0  0  0  0  0  0  0
    3.9941    2.3471    0.0000 C   0  0  0  0  0  0  0  0  0  0  0  0
    3.6319    0.9967    0.0000 C   0  0  0  0  0  0  0  0  0  0  0  0
    2.5941    0.0207    0.0000 C   0  0  0  0  0  0  0  0  0  0  0  0
    2.2235    0.9967    0.0000 C   0  0  0  0  0  0  0  0  0  0  0  0
    4.8424    0.2967    0.0000 N   0  0  0  0  0  0  0  0  0  0  0  0
    6.0529    0.9967    0.0000 C   0  0  0  0  0  0  0  0  0  0  0  0
    6.0529    2.3967    0.0000 O   0  0  0  0  0  0  0  0  0  0  0  0
    7.2635    0.2967    0.0000 N   0  0  0  0  0  0  0  0  0  0  0  0
    8.4743    0.9967    0.0000 C   0  0  0  0  0  0  0  0  0  0  0  0
    9.4643    0.0067    0.0000 C   0  0  0  0  0  0  0  0  0  0  0  0
   10.6806    0.7000    0.0000 C   0  0  0  0  0  0  0  0  0  0  0  0
   12.0804    0.7000    0.0000 C   0  0  0  0  0  0  0  0  0  0  0  0
   11.0906    1.6901    0.0000 C   0  0  0  0  0  0  0  0  0  0  0  0
    9.8741    0.9967    0.0000 C   0  0  0  0  0  0  0  0  0  0  0  0
   13.2929    0.0000    0.0000 O   0  0  0  0  0  0  0  0  0  0  0  0
   14.5053    0.7000    0.0000 C   0  0  0  0  0  0  0  0  0  0  0  0
   15.7178    0.0000    0.0000 C   0  0  0  0  0  0  0  0  0  0  0  0
   16.9302    0.7000    0.0000 C   0  0  0  0  0  0  0  0  0  0  0  0
   18.1426    0.0000    0.0000 C   0  0  0  0  0  0  0  0  0  0  0  0
   16.9302    2.1000    0.0000 C   0  0  0  0  0  0  0  0  0  0  0  0
   19.3551    0.7000    0.0000 C   0  0  0  0  0  0  0  0  0  0  0  0
   20.5675    0.0000    0.0000 C   0  0  0  0  0  0  0  0  0  0  0  0
   21.7799    0.7000    0.0000 C   0  0  0  0  0  0  0  0  0  0  0  0
   22.9924    0.0000    0.0000 C   0  0  0  0  0  0  0  0  0  0  0  0
   21.7799    2.1000    0.0000 C   0  0  0  0  0  0  0  0  0  0  0  0
  1  2  1  0  0  0  0
  2  3  1  0  0  0  0
  3  4  1  0  0  0  0
  4  5  1  0  0  0  0
  5  6  1  0  0  0  0
  1  6  1  0  0  0  0
  1  7  1  0  0  0  0
  7  8  1  0  0  0  0
  5  9  1  0  0  0  0
  8  9  1  0  0  0  0
  3 10  1  0  0  0  0
  8 10  1  0  0  0  0
  8 11  1  0  0  0  0
 11 12  1  0  0  0  0
 12 13  2  0  0  0  0
 12 14  1  0  0  0  0
 14 15  1  0  0  0  0
 15 16  1  0  0  0  0
 16 17  1  0  0  0  0
 17 18  1  0  0  0  0
 18 19  1  0  0  0  0
 19 20  1  0  0  0  0
 20 15  1  0  0  0  0
 18 21  1  0  0  0  0
 21 22  1  0  0  0  0
 22 23  1  0  0  0  0
 23 24  2  0  0  0  0
 24 25  1  0  0  0  0
 24 26  1  0  0  0  0
 25 27  1  0  0  0  0
 27 28  1  0  0  0  0
 28 29  2  0  0  0  0
 29 30  1  0  0  0  0
 29 31  1  0  0  0  0
M  END
> <Molecule Name>
984

> <CDD Number>
CDD-16247

> <Human_sEH_IC50_uM>
0.1

> <Mouse_sEH_IC50_uM>
0.05

$$$$

SketchEl molfile

 26 29  0  0  0  0  0  0  0  0999 V2000
    2.7836    3.0471    0.0000 C   0  0  0  0  0  0  0  0  0  0  0  0
    1.3836    3.0471    0.0000 C   0  0  0  0  0  0  0  0  0  0  0  0
    1.0130    1.6967    0.0000 C   0  0  0  0  0  0  0  0  0  0  0  0
    0.0000    0.7207    0.0000 C   0  0  0  0  0  0  0  0  0  0  0  0
    1.3836    0.7207    0.0000 C   0  0  0  0  0  0  0  0  0  0  0  0
    1.7500    2.0673    0.0000 C   0  0  0  0  0  0  0  0  0  0  0  0
    3.9941    2.3471    0.0000 C   0  0  0  0  0  0  0  0  0  0  0  0
    3.6319    0.9967    0.0000 C   0  0  0  0  0  0  0  0  0  0  0  0
    2.5941    0.0207    0.0000 C   0  0  0  0  0  0  0  0  0  0  0  0
    2.2235    0.9967    0.0000 C   0  0  0  0  0  0  0  0  0  0  0  0
    4.8424    0.2967    0.0000 N   0  0  0  0  0  0  0  0  0  0  0  0
    6.0529    0.9967    0.0000 C   0  0  0  0  0  0  0  0  0  0  0  0
    6.0529    2.3967    0.0000 O   0  0  0  0  0  0  0  0  0  0  0  0
    7.2635    0.2967    0.0000 N   0  0  0  0  0  0  0  0  0  0  0  0
    8.4743    0.9967    0.0000 C   0  0  0  0  0  0  0  0  0  0  0  0
    9.4643    0.0067    0.0000 C   0  0  0  0  0  0  0  0  0  0  0  0
   10.6806    0.7000    0.0000 C   0  0  0  0  0  0  0  0  0  0  0  0
   12.0804    0.7000    0.0000 C   0  0  0  0  0  0  0  0  0  0  0  0
   11.0906    1.6901    0.0000 C   0  0  0  0  0  0  0  0  0  0  0  0
    9.8741    0.9967    0.0000 C   0  0  0  0  0  0  0  0  0  0  0  0
   13.2929    0.0000    0.0000 O   0  0  0  0  0  0  0  0  0  0  0  0
   14.5053    0.7000    0.0000 C   0  0  0  0  0  0  0  0  0  0  0  0
   15.7178    0.0000    0.0000 C   0  0  0  0  0  0  0  0  0  0  0  0
   16.9302    0.7000    0.0000 C   0  0  0  0  0  0  0  0  0  0  0  0
   18.1426    0.0000    0.0000 C   0  0  0  0  0  0  0  0  0  0  0  0
   16.9302    2.1000    0.0000 C   0  0  0  0  0  0  0  0  0  0  0  0
  1  2  1  0  0  0  0
  2  3  1  0  0  0  0
  3  4  1  0  0  0  0
  4  5  1  0  0  0  0
  5  6  1  0  0  0  0
  1  6  1  0  0  0  0
  1  7  1  0  0  0  0
  7  8  1  0  0  0  0
  5  9  1  0  0  0  0
  8  9  1  0  0  0  0
  3 10  1  0  0  0  0
  8 10  1  0  0  0  0
  8 11  1  0  0  0  0
 11 12  1  0  0  0  0
 12 13  2  0  0  0  0
 12 14  1  0  0  0  0
 14 15  1  0  0  0  0
 15 16  1  0  0  0  0
 16 17  1  0  0  0  0
 17 18  1  0  0  0  0
 18 19  1  0  0  0  0
 19 20  1  0  0  0  0
 20 15  1  0  0  0  0
 18 21  1  0  0  0  0
 21 22  1  0  0  0  0
 22 23  1  0  0  0  0
 23 24  2  0  0  0  0
 24 25  1  0  0  0  0
 24 26  1  0  0  0  0
M  END
> <Molecule Name>
983

> <CDD Number>
CDD-16246

> <Human_sEH_IC50_uM>
0.1

> <Mouse_sEH_IC50_uM>
0.05

$$$$

SketchEl molfile

 24 27  0  0  0  0  0  0  0  0999 V2000
    2.7836    3.0471    0.0000 C   0  0  0  0  0  0  0  0  0  0  0  0
    1.3836    3.0471    0.0000 C   0  0  0  0  0  0  0  0  0  0  0  0
    1.0130    1.6967    0.0000 C   0  0  0  0  0  0  0  0  0  0  0  0
    0.0000    0.7207    0.0000 C   0  0  0  0  0  0  0  0  0  0  0  0
    1.3836    0.7207    0.0000 C   0  0  0  0  0  0  0  0  0  0  0  0
    1.7500    2.0673    0.0000 C   0  0  0  0  0  0  0  0  0  0  0  0
    3.9941    2.3471    0.0000 C   0  0  0  0  0  0  0  0  0  0  0  0
    3.6319    0.9967    0.0000 C   0  0  0  0  0  0  0  0  0  0  0  0
    2.5941    0.0207    0.0000 C   0  0  0  0  0  0  0  0  0  0  0  0
    2.2235    0.9967    0.0000 C   0  0  0  0  0  0  0  0  0  0  0  0
    4.8424    0.2967    0.0000 N   0  0  0  0  0  0  0  0  0  0  0  0
    6.0529    0.9967    0.0000 C   0  0  0  0  0  0  0  0  0  0  0  0
    6.0529    2.3967    0.0000 O   0  0  0  0  0  0  0  0  0  0  0  0
    7.2635    0.2967    0.0000 N   0  0  0  0  0  0  0  0  0  0  0  0
    8.4743    0.9967    0.0000 C   0  0  0  0  0  0  0  0  0  0  0  0
    9.4643    0.0067    0.0000 C   0  0  0  0  0  0  0  0  0  0  0  0
   10.6806    0.7000    0.0000 C   0  0  0  0  0  0  0  0  0  0  0  0
   12.0804    0.7000    0.0000 C   0  0  0  0  0  0  0  0  0  0  0  0
   11.0906    1.6901    0.0000 C   0  0  0  0  0  0  0  0  0  0  0  0
    9.8741    0.9967    0.0000 C   0  0  0  0  0  0  0  0  0  0  0  0
   13.2929    0.0000    0.0000 O   0  0  0  0  0  0  0  0  0  0  0  0
   14.5053    0.7000    0.0000 C   0  0  0  0  0  0  0  0  0  0  0  0
   15.7178    0.0000    0.0000 C   0  0  0  0  0  0  0  0  0  0  0  0
   16.9302    0.7000    0.0000 C   0  0  0  0  0  0  0  0  0  0  0  0
  1  2  1  0  0  0  0
  2  3  1  0  0  0  0
  3  4  1  0  0  0  0
  4  5  1  0  0  0  0
  5  6  1  0  0  0  0
  1  6  1  0  0  0  0
  1  7  1  0  0  0  0
  7  8  1  0  0  0  0
  5  9  1  0  0  0  0
  8  9  1  0  0  0  0
  3 10  1  0  0  0  0
  8 10  1  0  0  0  0
  8 11  1  0  0  0  0
 11 12  1  0  0  0  0
 12 13  2  0  0  0  0
 12 14  1  0  0  0  0
 14 15  1  0  0  0  0
 15 16  1  0  0  0  0
 16 17  1  0  0  0  0
 17 18  1  0  0  0  0
 18 19  1  0  0  0  0
 19 20  1  0  0  0  0
 20 15  1  0  0  0  0
 18 21  1  0  0  0  0
 21 22  1  0  0  0  0
 22 23  1  0  0  0  0
 23 24  2  0  0  0  0
M  END
> <Molecule Name>
982

> <CDD Number>
CDD-16245

> <Human_sEH_IC50_uM>
0.1

> <Mouse_sEH_IC50_uM>
0.05

$$$$

SketchEl molfile

 29 32  0  0  0  0  0  0  0  0999 V2000
    2.7836    3.0471    0.0000 C   0  0  0  0  0  0  0  0  0  0  0  0
    1.3836    3.0471    0.0000 C   0  0  0  0  0  0  0  0  0  0  0  0
    1.0130    1.6967    0.0000 C   0  0  0  0  0  0  0  0  0  0  0  0
    0.0000    0.7207    0.0000 C   0  0  0  0  0  0  0  0  0  0  0  0
    1.3836    0.7207    0.0000 C   0  0  0  0  0  0  0  0  0  0  0  0
    1.7500    2.0673    0.0000 C   0  0  0  0  0  0  0  0  0  0  0  0
    3.9941    2.3471    0.0000 C   0  0  0  0  0  0  0  0  0  0  0  0
    3.6319    0.9967    0.0000 C   0  0  0  0  0  0  0  0  0  0  0  0
    2.5941    0.0207    0.0000 C   0  0  0  0  0  0  0  0  0  0  0  0
    2.2235    0.9967    0.0000 C   0  0  0  0  0  0  0  0  0  0  0  0
    4.8424    0.2967    0.0000 N   0  0  0  0  0  0  0  0  0  0  0  0
    6.0529    0.9967    0.0000 C   0  0  0  0  0  0  0  0  0  0  0  0
    6.0529    2.3967    0.0000 O   0  0  0  0  0  0  0  0  0  0  0  0
    7.2635    0.2967    0.0000 N   0  0  0  0  0  0  0  0  0  0  0  0
    8.4743    0.9967    0.0000 C   0  0  0  0  0  0  0  0  0  0  0  0
    9.4643    0.0067    0.0000 C   0  0  0  0  0  0  0  0  0  0  0  0
   10.6806    0.7000    0.0000 C   0  0  0  0  0  0  0  0  0  0  0  0
   12.0804    0.7000    0.0000 C   0  0  0  0  0  0  0  0  0  0  0  0
   11.0906    1.6901    0.0000 C   0  0  0  0  0  0  0  0  0  0  0  0
    9.8741    0.9967    0.0000 C   0  0  0  0  0  0  0  0  0  0  0  0
   13.2929    0.0000    0.0000 O   0  0  0  0  0  0  0  0  0  0  0  0
   14.5053    0.7000    0.0000 C   0  0  0  0  0  0  0  0  0  0  0  0
   15.7178    0.0000    0.0000 C   0  0  0  0  0  0  0  0  0  0  0  0
   16.9302    0.7000    0.0000 O   0  0  0  0  0  0  0  0  0  0  0  0
   18.1426    0.0000    0.0000 C   0  0  0  0  0  0  0  0  0  0  0  0
   19.3551    0.7000    0.0000 C   0  0  0  0  0  0  0  0  0  0  0  0
   20.5675    0.0000    0.0000 O   0  0  0  0  0  0  0  0  0  0  0  0
   21.7799    0.7000    0.0000 C   0  0  0  0  0  0  0  0  0  0  0  0
   22.9924    0.0000    0.0000 C   0  0  0  0  0  0  0  0  0  0  0  0
  1  2  1  0  0  0  0
  2  3  1  0  0  0  0
  3  4  1  0  0  0  0
  4  5  1  0  0  0  0
  5  6  1  0  0  0  0
  1  6  1  0  0  0  0
  1  7  1  0  0  0  0
  7  8  1  0  0  0  0
  5  9  1  0  0  0  0
  8  9  1  0  0  0  0
  3 10  1  0  0  0  0
  8 10  1  0  0  0  0
  8 11  1  0  0  0  0
 11 12  1  0  0  0  0
 12 13  2  0  0  0  0
 12 14  1  0  0  0  0
 14 15  1  0  0  0  0
 15 16  1  0  0  0  0
 16 17  1  0  0  0  0
 17 18  1  0  0  0  0
 18 19  1  0  0  0  0
 19 20  1  0  0  0  0
 20 15  1  0  0  0  0
 18 21  1  0  0  0  0
 21 22  1  0  0  0  0
 22 23  1  0  0  0  0
 23 24  1  0  0  0  0
 24 25  1  0  0  0  0
 25 26  1  0  0  0  0
 26 27  1  0  0  0  0
 27 28  1  0  0  0  0
 28 29  1  0  0  0  0
M  END
> <Molecule Name>
981

> <CDD Number>
CDD-16244

> <Human_sEH_IC50_uM>
0.1

> <Mouse_sEH_IC50_uM>
0.05

$$$$

SketchEl molfile

 17 18  0  0  0  0  0  0  0  0999 V2000
    1.2124    2.1000    0.0000 C   0  0  0  0  0  0  0  0  0  0  0  0
    1.2124    0.7000    0.0000 C   0  0  0  0  0  0  0  0  0  0  0  0
    2.4249    0.0000    0.0000 C   0  0  0  0  0  0  0  0  0  0  0  0
    3.6373    0.7000    0.0000 C   0  0  0  0  0  0  0  0  0  0  0  0
    3.6373    2.1000    0.0000 C   0  0  0  0  0  0  0  0  0  0  0  0
    2.4249    2.8000    0.0000 C   0  0  0  0  0  0  0  0  0  0  0  0
    0.0000    0.0000    0.0000 Cl  0  0  0  0  0  0  0  0  0  0  0  0
    4.8497    0.0000    0.0000 N   0  0  0  0  0  0  0  0  0  0  0  0
    6.0622    0.7000    0.0000 C   0  0  0  0  0  0  0  0  0  0  0  0
    7.2746    0.0000    0.0000 N   0  0  0  0  0  0  0  0  0  0  0  0
    8.3150    0.9368    0.0000 C   0  0  0  0  0  0  0  0  0  0  0  0
    7.7456    2.2157    0.0000 C   0  0  0  0  0  0  0  0  0  0  0  0
    6.3533    2.0694    0.0000 O   0  0  0  0  0  0  0  0  0  0  0  0
    9.6844    0.6457    0.0000 C   0  0  0  0  0  0  0  0  0  0  0  0
   10.6212    1.6861    0.0000 C   0  0  0  0  0  0  0  0  0  0  0  0
   11.9906    1.3950    0.0000 C   0  0  0  0  0  0  0  0  0  0  0  0
   12.9274    2.4354    0.0000 C   0  0  0  0  0  0  0  0  0  0  0  0
  1  2  2  0  0  0  0
  2  3  1  0  0  0  0
  3  4  2  0  0  0  0
  4  5  1  0  0  0  0
  5  6  2  0  0  0  0
  6  1  1  0  0  0  0
  2  7  1  0  0  0  0
  4  8  1  0  0  0  0
  8  9  1  0  0  0  0
  9 10  2  0  0  0  0
 10 11  1  0  0  0  0
 11 12  1  0  0  0  0
 12 13  1  0  0  0  0
 13  9  1  0  0  0  0
 11 14  1  0  0  0  0
 14 15  1  0  0  0  0
 15 16  1  0  0  0  0
 16 17  1  0  0  0  0
M  END
> <Molecule Name>
980

> <CDD Number>
CDD-16243

> <Human_sEH_IC50_uM>
60.0

> <Mouse_sEH_IC50_uM>
49.0

$$$$

SketchEl molfile

 25 27  0  0  0  0  0  0  0  0999 V2000
    2.7863    3.0294    0.0000 C   0  0  0  0  0  0  0  0  0  0  0  0
    1.3850    3.0294    0.0000 C   0  0  0  0  0  0  0  0  0  0  0  0
    1.0140    1.6777    0.0000 C   0  0  0  0  0  0  0  0  0  0  0  0
    0.0000    0.7007    0.0000 C   0  0  0  0  0  0  0  0  0  0  0  0
    1.3850    0.7007    0.0000 C   0  0  0  0  0  0  0  0  0  0  0  0
    1.7517    2.0486    0.0000 C   0  0  0  0  0  0  0  0  0  0  0  0
    3.9980    2.3288    0.0000 C   0  0  0  0  0  0  0  0  0  0  0  0
    3.6355    0.9770    0.0000 C   0  0  0  0  0  0  0  0  0  0  0  0
    2.5967    0.0000    0.0000 C   0  0  0  0  0  0  0  0  0  0  0  0
    2.2257    0.9770    0.0000 C   0  0  0  0  0  0  0  0  0  0  0  0
    4.8472    0.2763    0.0000 N   0  0  0  0  0  0  0  0  0  0  0  0
    6.0589    0.9770    0.0000 C   0  0  0  0  0  0  0  0  0  0  0  0
    6.0589    2.3783    0.0000 O   0  0  0  0  0  0  0  0  0  0  0  0
    7.2706    0.2763    0.0000 N   0  0  0  0  0  0  0  0  0  0  0  0
    8.4827    0.9770    0.0000 C   0  0  0  0  0  0  0  0  0  0  0  0
    9.6944    0.2763    0.0000 C   0  0  0  0  0  0  0  0  0  0  0  0
   10.9061    0.9770    0.0000 C   0  0  0  0  0  0  0  0  0  0  0  0
   12.1178    0.2763    0.0000 C   0  0  0  0  0  0  0  0  0  0  0  0
   13.3295    0.9770    0.0000 C   0  0  0  0  0  0  0  0  0  0  0  0
   14.5431    0.2763    0.0000 C   0  0  0  0  0  0  0  0  0  0  0  0
   15.7568    0.9770    0.0000 C   0  0  0  0  0  0  0  0  0  0  0  0
   16.9704    0.2763    0.0000 C   0  0  0  0  0  0  0  0  0  0  0  0
   18.1840    0.9770    0.0000 C   0  0  0  0  0  0  0  0  0  0  0  0
   19.3977    0.2763    0.0000 C   0  0  0  0  0  0  0  0  0  0  0  0
    8.4827    2.3783    0.0000 O   0  0  0  0  0  0  0  0  0  0  0  0
  1  2  1  0  0  0  0
  2  3  1  0  0  0  0
  3  4  1  0  0  0  0
  4  5  1  0  0  0  0
  5  6  1  0  0  0  0
  1  6  1  0  0  0  0
  1  7  1  0  0  0  0
  7  8  1  0  0  0  0
  5  9  1  0  0  0  0
  8  9  1  0  0  0  0
  3 10  1  0  0  0  0
  8 10  1  0  0  0  0
  8 11  1  0  0  0  0
 11 12  1  0  0  0  0
 12 13  2  0  0  0  0
 12 14  1  0  0  0  0
 14 15  1  0  0  0  0
 15 16  1  0  0  0  0
 16 17  1  0  0  0  0
 17 18  1  0  0  0  0
 18 19  1  0  0  0  0
 19 20  1  0  0  0  0
 20 21  1  0  0  0  0
 21 22  1  0  0  0  0
 22 23  1  0  0  0  0
 23 24  1  0  0  0  0
 15 25  2  0  0  0  0
M  END
> <Molecule Name>
979

> <CDD Number>
CDD-16242

> <Human_sEH_IC50_uM>
100.0

> <Mouse_sEH_IC50_uM>
100.0

$$$$

SketchEl molfile

 18 18  0  0  0  0  0  0  0  0999 V2000
    1.2124    2.1000    0.0000 C   0  0  0  0  0  0  0  0  0  0  0  0
    1.2124    0.7000    0.0000 C   0  0  0  0  0  0  0  0  0  0  0  0
    2.4249    0.0000    0.0000 C   0  0  0  0  0  0  0  0  0  0  0  0
    3.6373    0.7000    0.0000 C   0  0  0  0  0  0  0  0  0  0  0  0
    3.6373    2.1000    0.0000 C   0  0  0  0  0  0  0  0  0  0  0  0
    2.4249    2.8000    0.0000 C   0  0  0  0  0  0  0  0  0  0  0  0
    4.8497    0.0000    0.0000 N   0  0  0  0  0  0  0  0  0  0  0  0
    6.0622    0.7000    0.0000 C   0  0  0  0  0  0  0  0  0  0  0  0
    7.2746    0.0000    0.0000 N   0  0  0  0  0  0  0  0  0  0  0  0
    6.0622    2.1000    0.0000 O   0  0  0  0  0  0  0  0  0  0  0  0
    8.4870    0.7000    0.0000 C   0  0  0  0  0  0  0  0  0  0  0  0
    9.6995    0.0000    0.0000 C   0  0  0  0  0  0  0  0  0  0  0  0
    8.4870    2.1000    0.0000 C   0  0  0  0  0  0  0  0  0  0  0  0
    9.6995    2.8000    0.0000 O   0  0  0  0  0  0  0  0  0  0  0  0
   10.9119    0.7000    0.0000 C   0  0  0  0  0  0  0  0  0  0  0  0
    0.0000    0.0000    0.0000 Cl  0  0  0  0  0  0  0  0  0  0  0  0
   12.1244    0.0000    0.0000 C   0  0  0  0  0  0  0  0  0  0  0  0
   13.3368    0.7000    0.0000 C   0  0  0  0  0  0  0  0  0  0  0  0
  1  2  2  0  0  0  0
  2  3  1  0  0  0  0
  3  4  2  0  0  0  0
  4  5  1  0  0  0  0
  5  6  2  0  0  0  0
  6  1  1  0  0  0  0
  4  7  1  0  0  0  0
  7  8  1  0  0  0  0
  8  9  1  0  0  0  0
  8 10  2  0  0  0  0
  9 11  1  0  0  0  0
 11 12  1  0  0  0  0
 11 13  1  0  0  0  0
 13 14  1  0  0  0  0
 12 15  1  0  0  0  0
  2 16  1  0  0  0  0
 15 17  1  0  0  0  0
 17 18  1  0  0  0  0
M  END
> <Molecule Name>
978

> <CDD Number>
CDD-16241

> <Human_sEH_IC50_uM>
1.9

> <Mouse_sEH_IC50_uM>
8.4

$$$$

SketchEl molfile

 17 17  0  0  0  0  0  0  0  0999 V2000
    0.0000    0.9967    0.0000 C   0  0  0  0  0  0  0  0  0  0  0  0
    0.9899    0.0067    0.0000 C   0  0  0  0  0  0  0  0  0  0  0  0
    2.2063    0.7000    0.0000 C   0  0  0  0  0  0  0  0  0  0  0  0
    3.6061    0.7000    0.0000 C   0  0  0  0  0  0  0  0  0  0  0  0
    2.6163    1.6901    0.0000 C   0  0  0  0  0  0  0  0  0  0  0  0
    1.3998    0.9967    0.0000 C   0  0  0  0  0  0  0  0  0  0  0  0
    4.8186    0.0000    0.0000 N   0  0  0  0  0  0  0  0  0  0  0  0
    6.0310    0.7000    0.0000 C   0  0  0  0  0  0  0  0  0  0  0  0
    7.2434    0.0000    0.0000 N   0  0  0  0  0  0  0  0  0  0  0  0
    6.0310    2.1000    0.0000 O   0  0  0  0  0  0  0  0  0  0  0  0
    8.4559    0.7000    0.0000 C   0  0  0  0  0  0  0  0  0  0  0  0
    9.6683    0.0000    0.0000 C   0  0  0  0  0  0  0  0  0  0  0  0
    8.4559    2.1000    0.0000 C   0  0  0  0  0  0  0  0  0  0  0  0
    9.6683    2.8000    0.0000 O   0  0  0  0  0  0  0  0  0  0  0  0
   10.8807    0.7000    0.0000 C   0  0  0  0  0  0  0  0  0  0  0  0
   12.0932    0.0000    0.0000 C   0  0  0  0  0  0  0  0  0  0  0  0
   13.3056    0.7000    0.0000 C   0  0  0  0  0  0  0  0  0  0  0  0
  1  2  1  0  0  0  0
  2  3  1  0  0  0  0
  3  4  1  0  0  0  0
  4  5  1  0  0  0  0
  5  6  1  0  0  0  0
  6  1  1  0  0  0  0
  4  7  1  0  0  0  0
  7  8  1  0  0  0  0
  8  9  1  0  0  0  0
  8 10  2  0  0  0  0
  9 11  1  0  0  0  0
 11 12  1  0  0  0  0
 11 13  1  0  0  0  0
 13 14  1  0  0  0  0
 12 15  1  0  0  0  0
 15 16  1  0  0  0  0
 16 17  1  0  0  0  0
M  END
> <Molecule Name>
977

> <CDD Number>
CDD-16240

> <Human_sEH_IC50_uM>
0.25

> <Mouse_sEH_IC50_uM>
0.1

$$$$

SketchEl molfile

 42 46  0  0  0  0  0  0  0  0999 V2000
    2.7836    8.3505    0.0000 C   0  0  0  0  0  0  0  0  0  0  0  0
    1.3836    8.3505    0.0000 C   0  0  0  0  0  0  0  0  0  0  0  0
    1.0130    7.0000    0.0000 C   0  0  0  0  0  0  0  0  0  0  0  0
    0.0000    6.0240    0.0000 C   0  0  0  0  0  0  0  0  0  0  0  0
    1.3836    6.0240    0.0000 C   0  0  0  0  0  0  0  0  0  0  0  0
    1.7500    7.3706    0.0000 C   0  0  0  0  0  0  0  0  0  0  0  0
    3.9941    7.6505    0.0000 C   0  0  0  0  0  0  0  0  0  0  0  0
    3.6319    6.3000    0.0000 C   0  0  0  0  0  0  0  0  0  0  0  0
    2.5941    5.3240    0.0000 C   0  0  0  0  0  0  0  0  0  0  0  0
    2.2235    6.3000    0.0000 C   0  0  0  0  0  0  0  0  0  0  0  0
    4.8424    5.6000    0.0000 N   0  0  0  0  0  0  0  0  0  0  0  0
    6.0529    6.3000    0.0000 C   0  0  0  0  0  0  0  0  0  0  0  0
    6.0529    7.7000    0.0000 O   0  0  0  0  0  0  0  0  0  0  0  0
    7.2635    5.6000    0.0000 N   0  0  0  0  0  0  0  0  0  0  0  0
    8.4743    6.3000    0.0000 C   0  0  0  0  0  0  0  0  0  0  0  0
    9.6848    5.6000    0.0000 C   0  0  0  0  0  0  0  0  0  0  0  0
   10.8954    6.3000    0.0000 C   0  0  0  0  0  0  0  0  0  0  0  0
   12.1059    5.6000    0.0000 C   0  0  0  0  0  0  0  0  0  0  0  0
   13.3164    6.3000    0.0000 C   0  0  0  0  0  0  0  0  0  0  0  0
   14.5288    5.6000    0.0000 O   0  0  0  0  0  0  0  0  0  0  0  0
   15.7413    6.3000    0.0000 C   0  0  0  0  0  0  0  0  0  0  0  0
   16.9537    5.6000    0.0000 C   0  0  0  0  0  0  0  0  0  0  0  0
   18.1661    6.3000    0.0000 O   0  0  0  0  0  0  0  0  0  0  0  0
   19.3786    5.6000    0.0000 C   0  0  0  0  0  0  0  0  0  0  0  0
   20.5910    6.3000    0.0000 C   0  0  0  0  0  0  0  0  0  0  0  0
   21.8035    5.6000    0.0000 N   0  0  0  0  0  0  0  0  0  0  0  0
   23.0159    6.3000    0.0000 S   0  0  0  0  0  0  0  0  0  0  0  0
   24.2283    5.6000    0.0000 C   0  0  0  0  0  0  0  0  0  0  0  0
   24.2283    4.2000    0.0000 C   0  0  0  0  0  0  0  0  0  0  0  0
   25.4408    3.5000    0.0000 C   0  0  0  0  0  0  0  0  0  0  0  0
   26.6532    4.2000    0.0000 C   0  0  0  0  0  0  0  0  0  0  0  0
   26.6532    5.6000    0.0000 C   0  0  0  0  0  0  0  0  0  0  0  0
   25.4408    6.3000    0.0000 C   0  0  0  0  0  0  0  0  0  0  0  0
   23.0159    3.5000    0.0000 C   0  0  0  0  0  0  0  0  0  0  0  0
   23.0159    2.1000    0.0000 C   0  0  0  0  0  0  0  0  0  0  0  0
   24.2283    1.4000    0.0000 C   0  0  0  0  0  0  0  0  0  0  0  0
   25.4408    2.1000    0.0000 C   0  0  0  0  0  0  0  0  0  0  0  0
   23.0159    7.7000    0.0000 O   0  0  0  0  0  0  0  0  0  0  0  0
   23.0159    4.9000    0.0000 O   0  0  0  0  0  0  0  0  0  0  0  0
   26.6532    1.4000    0.0000 N   0  0  0  0  0  0  0  0  0  0  0  0
   27.8656    2.1000    0.0000 C   0  0  0  0  0  0  0  0  0  0  0  0
   26.6532    0.0000    0.0000 C   0  0  0  0  0  0  0  0  0  0  0  0
  1  2  1  0  0  0  0
  2  3  1  0  0  0  0
  3  4  1  0  0  0  0
  4  5  1  0  0  0  0
  5  6  1  0  0  0  0
  1  6  1  0  0  0  0
  1  7  1  0  0  0  0
  7  8  1  0  0  0  0
  5  9  1  0  0  0  0
  8  9  1  0  0  0  0
  3 10  1  0  0  0  0
  8 10  1  0  0  0  0
  8 11  1  0  0  0  0
 11 12  1  0  0  0  0
 12 13  2  0  0  0  0
 12 14  1  0  0  0  0
 14 15  1  0  0  0  0
 15 16  1  0  0  0  0
 16 17  1  0  0  0  0
 17 18  1  0  0  0  0
 18 19  1  0  0  0  0
 19 20  1  0  0  0  0
 20 21  1  0  0  0  0
 21 22  1  0  0  0  0
 22 23  1  0  0  0  0
 23 24  1  0  0  0  0
 25 24  1  0  0  0  0
 26 25  1  0  0  0  0
 27 26  1  0  0  0  0
 28 27  1  0  0  0  0
 28 29  2  0  0  0  0
 29 30  1  0  0  0  0
 30 31  2  0  0  0  0
 31 32  1  0  0  0  0
 32 33  2  0  0  0  0
 33 28  1  0  0  0  0
 29 34  1  0  0  0  0
 34 35  2  0  0  0  0
 35 36  1  0  0  0  0
 36 37  2  0  0  0  0
 37 30  1  0  0  0  0
 27 38  2  0  0  0  0
 27 39  2  0  0  0  0
 37 40  1  0  0  0  0
 40 41  1  0  0  0  0
 40 42  1  0  0  0  0
M  END
> <Molecule Name>
976

> <CDD Number>
CDD-16239

> <Human_sEH_IC50_uM>
0.1

> <Mouse_sEH_IC50_uM>
0.05

$$$$

SketchEl molfile

 29 31  0  0  0  0  0  0  0  0999 V2000
    2.7836    3.0265    0.0000 C   0  0  0  0  0  0  0  0  0  0  0  0
    1.3836    3.0265    0.0000 C   0  0  0  0  0  0  0  0  0  0  0  0
    1.0130    1.6760    0.0000 C   0  0  0  0  0  0  0  0  0  0  0  0
    0.0000    0.7000    0.0000 C   0  0  0  0  0  0  0  0  0  0  0  0
    1.3836    0.7000    0.0000 C   0  0  0  0  0  0  0  0  0  0  0  0
    1.7500    2.0466    0.0000 C   0  0  0  0  0  0  0  0  0  0  0  0
    3.9941    2.3265    0.0000 C   0  0  0  0  0  0  0  0  0  0  0  0
    3.6319    0.9760    0.0000 C   0  0  0  0  0  0  0  0  0  0  0  0
    2.5941    0.0000    0.0000 C   0  0  0  0  0  0  0  0  0  0  0  0
    2.2235    0.9760    0.0000 C   0  0  0  0  0  0  0  0  0  0  0  0
    4.8424    0.2760    0.0000 N   0  0  0  0  0  0  0  0  0  0  0  0
    6.0529    0.9760    0.0000 C   0  0  0  0  0  0  0  0  0  0  0  0
    6.0529    2.3760    0.0000 O   0  0  0  0  0  0  0  0  0  0  0  0
    7.2635    0.2760    0.0000 N   0  0  0  0  0  0  0  0  0  0  0  0
    8.4743    0.9760    0.0000 C   0  0  0  0  0  0  0  0  0  0  0  0
    9.6848    0.2760    0.0000 C   0  0  0  0  0  0  0  0  0  0  0  0
   10.8954    0.9760    0.0000 C   0  0  0  0  0  0  0  0  0  0  0  0
   12.1059    0.2760    0.0000 C   0  0  0  0  0  0  0  0  0  0  0  0
   13.3164    0.9760    0.0000 C   0  0  0  0  0  0  0  0  0  0  0  0
   14.5288    0.2760    0.0000 O   0  0  0  0  0  0  0  0  0  0  0  0
   15.7413    0.9760    0.0000 C   0  0  0  0  0  0  0  0  0  0  0  0
   16.9537    0.2760    0.0000 C   0  0  0  0  0  0  0  0  0  0  0  0
   18.1662    0.9760    0.0000 O   0  0  0  0  0  0  0  0  0  0  0  0
   19.3786    0.2760    0.0000 C   0  0  0  0  0  0  0  0  0  0  0  0
   20.5910    0.9760    0.0000 C   0  0  0  0  0  0  0  0  0  0  0  0
   21.8035    0.2760    0.0000 O   0  0  0  0  0  0  0  0  0  0  0  0
   23.0159    0.9760    0.0000 C   0  0  0  0  0  0  0  0  0  0  0  0
   24.2283    0.2760    0.0000 C   0  0  0  0  0  0  0  0  0  0  0  0
   25.4408    0.9760    0.0000 O   0  0  0  0  0  0  0  0  0  0  0  0
  1  2  1  0  0  0  0
  2  3  1  0  0  0  0
  3  4  1  0  0  0  0
  4  5  1  0  0  0  0
  5  6  1  0  0  0  0
  1  6  1  0  0  0  0
  1  7  1  0  0  0  0
  7  8  1  0  0  0  0
  5  9  1  0  0  0  0
  8  9  1  0  0  0  0
  3 10  1  0  0  0  0
  8 10  1  0  0  0  0
  8 11  1  0  0  0  0
 11 12  1  0  0  0  0
 12 13  2  0  0  0  0
 12 14  1  0  0  0  0
 14 15  1  0  0  0  0
 15 16  1  0  0  0  0
 16 17  1  0  0  0  0
 17 18  1  0  0  0  0
 18 19  1  0  0  0  0
 19 20  1  0  0  0  0
 20 21  1  0  0  0  0
 21 22  1  0  0  0  0
 22 23  1  0  0  0  0
 23 24  1  0  0  0  0
 25 24  1  0  0  0  0
 26 25  1  0  0  0  0
 27 26  1  0  0  0  0
 28 27  1  0  0  0  0
 28 29  1  0  0  0  0
M  END
> <Molecule Name>
975

> <CDD Number>
CDD-16238

> <Human_sEH_IC50_uM>
0.1

> <Mouse_sEH_IC50_uM>
0.05

$$$$

SketchEl molfile

 29 31  0  0  0  0  0  0  0  0999 V2000
    2.7836    3.0265    0.0000 C   0  0  0  0  0  0  0  0  0  0  0  0
    1.3836    3.0265    0.0000 C   0  0  0  0  0  0  0  0  0  0  0  0
    1.0130    1.6760    0.0000 C   0  0  0  0  0  0  0  0  0  0  0  0
    0.0000    0.7000    0.0000 C   0  0  0  0  0  0  0  0  0  0  0  0
    1.3836    0.7000    0.0000 C   0  0  0  0  0  0  0  0  0  0  0  0
    1.7500    2.0466    0.0000 C   0  0  0  0  0  0  0  0  0  0  0  0
    3.9941    2.3265    0.0000 C   0  0  0  0  0  0  0  0  0  0  0  0
    3.6319    0.9760    0.0000 C   0  0  0  0  0  0  0  0  0  0  0  0
    2.5941    0.0000    0.0000 C   0  0  0  0  0  0  0  0  0  0  0  0
    2.2235    0.9760    0.0000 C   0  0  0  0  0  0  0  0  0  0  0  0
    4.8424    0.2760    0.0000 N   0  0  0  0  0  0  0  0  0  0  0  0
    6.0529    0.9760    0.0000 C   0  0  0  0  0  0  0  0  0  0  0  0
    6.0529    2.3760    0.0000 O   0  0  0  0  0  0  0  0  0  0  0  0
    7.2635    0.2760    0.0000 N   0  0  0  0  0  0  0  0  0  0  0  0
    8.4743    0.9760    0.0000 C   0  0  0  0  0  0  0  0  0  0  0  0
    9.6848    0.2760    0.0000 C   0  0  0  0  0  0  0  0  0  0  0  0
   10.8954    0.9760    0.0000 C   0  0  0  0  0  0  0  0  0  0  0  0
   12.1059    0.2760    0.0000 C   0  0  0  0  0  0  0  0  0  0  0  0
   13.3164    0.9760    0.0000 C   0  0  0  0  0  0  0  0  0  0  0  0
   14.5288    0.2760    0.0000 O   0  0  0  0  0  0  0  0  0  0  0  0
   15.7413    0.9760    0.0000 C   0  0  0  0  0  0  0  0  0  0  0  0
   16.9537    0.2760    0.0000 C   0  0  0  0  0  0  0  0  0  0  0  0
   18.1662    0.9760    0.0000 O   0  0  0  0  0  0  0  0  0  0  0  0
   19.3786    0.2760    0.0000 C   0  0  0  0  0  0  0  0  0  0  0  0
   20.5910    0.9760    0.0000 C   0  0  0  0  0  0  0  0  0  0  0  0
   21.8035    0.2760    0.0000 O   0  0  0  0  0  0  0  0  0  0  0  0
   23.0159    0.9760    0.0000 C   0  0  0  0  0  0  0  0  0  0  0  0
   24.2283    0.2760    0.0000 C   0  0  0  0  0  0  0  0  0  0  0  0
   23.0159    2.3760    0.0000 C   0  0  0  0  0  0  0  0  0  0  0  0
  1  2  1  0  0  0  0
  2  3  1  0  0  0  0
  3  4  1  0  0  0  0
  4  5  1  0  0  0  0
  5  6  1  0  0  0  0
  1  6  1  0  0  0  0
  1  7  1  0  0  0  0
  7  8  1  0  0  0  0
  5  9  1  0  0  0  0
  8  9  1  0  0  0  0
  3 10  1  0  0  0  0
  8 10  1  0  0  0  0
  8 11  1  0  0  0  0
 11 12  1  0  0  0  0
 12 13  2  0  0  0  0
 12 14  1  0  0  0  0
 14 15  1  0  0  0  0
 15 16  1  0  0  0  0
 16 17  1  0  0  0  0
 17 18  1  0  0  0  0
 18 19  1  0  0  0  0
 19 20  1  0  0  0  0
 20 21  1  0  0  0  0
 21 22  1  0  0  0  0
 22 23  1  0  0  0  0
 23 24  1  0  0  0  0
 25 24  1  0  0  0  0
 26 25  1  0  0  0  0
 27 26  1  0  0  0  0
 28 27  1  0  0  0  0
 27 29  1  0  0  0  0
M  END
> <Molecule Name>
974

> <CDD Number>
CDD-16237

> <Human_sEH_IC50_uM>
0.1

> <Mouse_sEH_IC50_uM>
0.05

$$$$

SketchEl molfile

 34 37  0  0  0  0  0  0  0  0999 V2000
    2.7836    3.0265    0.0000 C   0  0  0  0  0  0  0  0  0  0  0  0
    1.3836    3.0265    0.0000 C   0  0  0  0  0  0  0  0  0  0  0  0
    1.0130    1.6760    0.0000 C   0  0  0  0  0  0  0  0  0  0  0  0
    0.0000    0.7000    0.0000 C   0  0  0  0  0  0  0  0  0  0  0  0
    1.3836    0.7000    0.0000 C   0  0  0  0  0  0  0  0  0  0  0  0
    1.7500    2.0466    0.0000 C   0  0  0  0  0  0  0  0  0  0  0  0
    3.9941    2.3265    0.0000 C   0  0  0  0  0  0  0  0  0  0  0  0
    3.6319    0.9760    0.0000 C   0  0  0  0  0  0  0  0  0  0  0  0
    2.5941    0.0000    0.0000 C   0  0  0  0  0  0  0  0  0  0  0  0
    2.2235    0.9760    0.0000 C   0  0  0  0  0  0  0  0  0  0  0  0
    4.8424    0.2760    0.0000 N   0  0  0  0  0  0  0  0  0  0  0  0
    6.0529    0.9760    0.0000 C   0  0  0  0  0  0  0  0  0  0  0  0
    6.0529    2.3760    0.0000 O   0  0  0  0  0  0  0  0  0  0  0  0
    7.2635    0.2760    0.0000 N   0  0  0  0  0  0  0  0  0  0  0  0
    8.4743    0.9760    0.0000 C   0  0  0  0  0  0  0  0  0  0  0  0
    9.6848    0.2760    0.0000 C   0  0  0  0  0  0  0  0  0  0  0  0
   10.8954    0.9760    0.0000 C   0  0  0  0  0  0  0  0  0  0  0  0
   12.1059    0.2760    0.0000 C   0  0  0  0  0  0  0  0  0  0  0  0
   13.3164    0.9760    0.0000 C   0  0  0  0  0  0  0  0  0  0  0  0
   14.5288    0.2760    0.0000 O   0  0  0  0  0  0  0  0  0  0  0  0
   15.7413    0.9760    0.0000 C   0  0  0  0  0  0  0  0  0  0  0  0
   16.9537    0.2760    0.0000 C   0  0  0  0  0  0  0  0  0  0  0  0
   18.1661    0.9760    0.0000 O   0  0  0  0  0  0  0  0  0  0  0  0
   19.3786    0.2760    0.0000 C   0  0  0  0  0  0  0  0  0  0  0  0
   20.5910    0.9760    0.0000 C   0  0  0  0  0  0  0  0  0  0  0  0
   21.8035    0.2760    0.0000 O   0  0  0  0  0  0  0  0  0  0  0  0
   23.0159    0.9760    0.0000 C   0  0  0  0  0  0  0  0  0  0  0  0
   24.2283    0.2760    0.0000 C   0  0  0  0  0  0  0  0  0  0  0  0
   25.4408    0.9760    0.0000 C   0  0  0  0  0  0  0  0  0  0  0  0
   25.4408    2.3760    0.0000 C   0  0  0  0  0  0  0  0  0  0  0  0
   24.2283    3.0760    0.0000 C   0  0  0  0  0  0  0  0  0  0  0  0
   23.0159    2.3760    0.0000 C   0  0  0  0  0  0  0  0  0  0  0  0
   26.6532    3.0760    0.0000 C   0  0  0  0  0  0  0  0  0  0  0  0
   27.8656    2.3760    0.0000 C   0  0  0  0  0  0  0  0  0  0  0  0
  1  2  1  0  0  0  0
  2  3  1  0  0  0  0
  3  4  1  0  0  0  0
  4  5  1  0  0  0  0
  5  6  1  0  0  0  0
  1  6  1  0  0  0  0
  1  7  1  0  0  0  0
  7  8  1  0  0  0  0
  5  9  1  0  0  0  0
  8  9  1  0  0  0  0
  3 10  1  0  0  0  0
  8 10  1  0  0  0  0
  8 11  1  0  0  0  0
 11 12  1  0  0  0  0
 12 13  2  0  0  0  0
 12 14  1  0  0  0  0
 14 15  1  0  0  0  0
 15 16  1  0  0  0  0
 16 17  1  0  0  0  0
 17 18  1  0  0  0  0
 18 19  1  0  0  0  0
 19 20  1  0  0  0  0
 20 21  1  0  0  0  0
 21 22  1  0  0  0  0
 22 23  1  0  0  0  0
 23 24  1  0  0  0  0
 25 24  1  0  0  0  0
 26 25  1  0  0  0  0
 27 26  1  0  0  0  0
 27 28  2  0  0  0  0
 28 29  1  0  0  0  0
 29 30  2  0  0  0  0
 30 31  1  0  0  0  0
 31 32  2  0  0  0  0
 32 27  1  0  0  0  0
 30 33  1  0  0  0  0
 33 34  1  0  0  0  0
M  END
> <Molecule Name>
973

> <CDD Number>
CDD-16236

> <Human_sEH_IC50_uM>
0.1

> <Mouse_sEH_IC50_uM>
0.05

$$$$

SketchEl molfile

 31 33  0  0  0  0  0  0  0  0999 V2000
    2.7836    4.1028    0.0000 C   0  0  0  0  0  0  0  0  0  0  0  0
    1.3836    4.1028    0.0000 C   0  0  0  0  0  0  0  0  0  0  0  0
    1.0130    2.7523    0.0000 C   0  0  0  0  0  0  0  0  0  0  0  0
    0.0000    1.7763    0.0000 C   0  0  0  0  0  0  0  0  0  0  0  0
    1.3836    1.7763    0.0000 C   0  0  0  0  0  0  0  0  0  0  0  0
    1.7500    3.1229    0.0000 C   0  0  0  0  0  0  0  0  0  0  0  0
    3.9941    3.4028    0.0000 C   0  0  0  0  0  0  0  0  0  0  0  0
    3.6319    2.0523    0.0000 C   0  0  0  0  0  0  0  0  0  0  0  0
    2.5941    1.0763    0.0000 C   0  0  0  0  0  0  0  0  0  0  0  0
    2.2235    2.0523    0.0000 C   0  0  0  0  0  0  0  0  0  0  0  0
    4.8424    1.3523    0.0000 N   0  0  0  0  0  0  0  0  0  0  0  0
    6.0529    2.0523    0.0000 C   0  0  0  0  0  0  0  0  0  0  0  0
    6.0529    3.4523    0.0000 O   0  0  0  0  0  0  0  0  0  0  0  0
    7.2635    1.3523    0.0000 N   0  0  0  0  0  0  0  0  0  0  0  0
    8.4743    2.0523    0.0000 C   0  0  0  0  0  0  0  0  0  0  0  0
    9.6848    1.3523    0.0000 C   0  0  0  0  0  0  0  0  0  0  0  0
   10.8954    2.0523    0.0000 C   0  0  0  0  0  0  0  0  0  0  0  0
   12.1059    1.3523    0.0000 C   0  0  0  0  0  0  0  0  0  0  0  0
   13.3164    2.0523    0.0000 C   0  0  0  0  0  0  0  0  0  0  0  0
   14.5288    1.3523    0.0000 O   0  0  0  0  0  0  0  0  0  0  0  0
   15.7413    2.0523    0.0000 C   0  0  0  0  0  0  0  0  0  0  0  0
   16.9537    1.3523    0.0000 C   0  0  0  0  0  0  0  0  0  0  0  0
   18.1661    2.0523    0.0000 O   0  0  0  0  0  0  0  0  0  0  0  0
   19.3786    1.3523    0.0000 C   0  0  0  0  0  0  0  0  0  0  0  0
   20.5910    2.0523    0.0000 C   0  0  0  0  0  0  0  0  0  0  0  0
   21.8035    1.3523    0.0000 O   0  0  0  0  0  0  0  0  0  0  0  0
   23.0159    2.0523    0.0000 C   0  0  0  0  0  0  0  0  0  0  0  0
   24.2283    1.3523    0.0000 C   0  0  0  0  0  0  0  0  0  0  0  0
   25.4408    2.0523    0.0000 F   0  0  0  0  0  0  0  0  0  0  0  0
   25.4408    0.6523    0.0000 F   0  0  0  0  0  0  0  0  0  0  0  0
   23.8660    0.0000    0.0000 F   0  0  0  0  0  0  0  0  0  0  0  0
  1  2  1  0  0  0  0
  2  3  1  0  0  0  0
  3  4  1  0  0  0  0
  4  5  1  0  0  0  0
  5  6  1  0  0  0  0
  1  6  1  0  0  0  0
  1  7  1  0  0  0  0
  7  8  1  0  0  0  0
  5  9  1  0  0  0  0
  8  9  1  0  0  0  0
  3 10  1  0  0  0  0
  8 10  1  0  0  0  0
  8 11  1  0  0  0  0
 11 12  1  0  0  0  0
 12 13  2  0  0  0  0
 12 14  1  0  0  0  0
 14 15  1  0  0  0  0
 15 16  1  0  0  0  0
 16 17  1  0  0  0  0
 17 18  1  0  0  0  0
 18 19  1  0  0  0  0
 19 20  1  0  0  0  0
 20 21  1  0  0  0  0
 21 22  1  0  0  0  0
 22 23  1  0  0  0  0
 23 24  1  0  0  0  0
 25 24  1  0  0  0  0
 26 25  1  0  0  0  0
 27 26  1  0  0  0  0
 28 27  1  0  0  0  0
 28 29  1  0  0  0  0
 28 30  1  0  0  0  0
 28 31  1  0  0  0  0
M  END
> <Molecule Name>
972

> <CDD Number>
CDD-16235

> <Human_sEH_IC50_uM>
0.1

> <Mouse_sEH_IC50_uM>
0.05

$$$$

SketchEl molfile

 18 19  0  0  0  0  0  0  0  0999 V2000
    0.0000    0.9967    0.0000 C   0  0  0  0  0  0  0  0  0  0  0  0
    0.9899    0.0067    0.0000 C   0  0  0  0  0  0  0  0  0  0  0  0
    2.2063    0.7000    0.0000 C   0  0  0  0  0  0  0  0  0  0  0  0
    3.6061    0.7000    0.0000 C   0  0  0  0  0  0  0  0  0  0  0  0
    2.6163    1.6901    0.0000 C   0  0  0  0  0  0  0  0  0  0  0  0
    1.3998    0.9967    0.0000 C   0  0  0  0  0  0  0  0  0  0  0  0
    4.8186    0.0000    0.0000 N   0  0  0  0  0  0  0  0  0  0  0  0
    6.0310    0.7000    0.0000 C   0  0  0  0  0  0  0  0  0  0  0  0
    7.2434    0.0000    0.0000 C   0  0  0  0  0  0  0  0  0  0  0  0
    6.0310    2.1000    0.0000 O   0  0  0  0  0  0  0  0  0  0  0  0
    8.4559    0.7000    0.0000 C   0  0  0  0  0  0  0  0  0  0  0  0
    9.6683    0.0000    0.0000 C   0  0  0  0  0  0  0  0  0  0  0  0
   10.8807    0.7000    0.0000 C   0  0  0  0  0  0  0  0  0  0  0  0
   12.0932    0.0000    0.0000 C   0  0  0  0  0  0  0  0  0  0  0  0
   13.3056    0.7000    0.0000 C   0  0  0  0  0  0  0  0  0  0  0  0
   13.3056    2.1000    0.0000 C   0  0  0  0  0  0  0  0  0  0  0  0
   12.0932    2.8000    0.0000 C   0  0  0  0  0  0  0  0  0  0  0  0
   10.8807    2.1000    0.0000 C   0  0  0  0  0  0  0  0  0  0  0  0
  1  2  1  0  0  0  0
  2  3  1  0  0  0  0
  3  4  1  0  0  0  0
  4  5  1  0  0  0  0
  5  6  1  0  0  0  0
  6  1  1  0  0  0  0
  4  7  1  0  0  0  0
  7  8  1  0  0  0  0
  8  9  1  0  0  0  0
  8 10  2  0  0  0  0
  9 11  1  0  0  0  0
 11 12  1  0  0  0  0
 12 13  1  0  0  0  0
 13 14  2  0  0  0  0
 14 15  1  0  0  0  0
 15 16  2  0  0  0  0
 16 17  1  0  0  0  0
 17 18  2  0  0  0  0
 18 13  1  0  0  0  0
M  END
> <Molecule Name>
971

> <CDD Number>
CDD-16234

> <Human_sEH_IC50_uM>
1.4

> <Mouse_sEH_IC50_uM>
0.11

$$$$

SketchEl molfile

 18 19  0  0  0  0  0  0  0  0999 V2000
    0.0000    0.9967    0.0000 C   0  0  0  0  0  0  0  0  0  0  0  0
    0.9899    0.0067    0.0000 C   0  0  0  0  0  0  0  0  0  0  0  0
    2.2063    0.7000    0.0000 C   0  0  0  0  0  0  0  0  0  0  0  0
    3.6061    0.7000    0.0000 C   0  0  0  0  0  0  0  0  0  0  0  0
    2.6163    1.6901    0.0000 C   0  0  0  0  0  0  0  0  0  0  0  0
    1.3998    0.9967    0.0000 C   0  0  0  0  0  0  0  0  0  0  0  0
    4.8186    0.0000    0.0000 N   0  0  0  0  0  0  0  0  0  0  0  0
    6.0310    0.7000    0.0000 C   0  0  0  0  0  0  0  0  0  0  0  0
    7.2434    0.0000    0.0000 C   0  0  0  0  0  0  0  0  0  0  0  0
    6.0310    2.1000    0.0000 O   0  0  0  0  0  0  0  0  0  0  0  0
    8.4559    0.7000    0.0000 C   0  0  0  0  0  0  0  0  0  0  0  0
    9.6683    0.0000    0.0000 C   0  0  0  0  0  0  0  0  0  0  0  0
   10.8807    0.7000    0.0000 C   0  0  0  0  0  0  0  0  0  0  0  0
   10.8807    2.1000    0.0000 C   0  0  0  0  0  0  0  0  0  0  0  0
    9.6683    2.8000    0.0000 C   0  0  0  0  0  0  0  0  0  0  0  0
    8.4559    2.1000    0.0000 C   0  0  0  0  0  0  0  0  0  0  0  0
   12.0932    2.8000    0.0000 O   0  0  0  0  0  0  0  0  0  0  0  0
   13.3056    2.1000    0.0000 C   0  0  0  0  0  0  0  0  0  0  0  0
  1  2  1  0  0  0  0
  2  3  1  0  0  0  0
  3  4  1  0  0  0  0
  4  5  1  0  0  0  0
  5  6  1  0  0  0  0
  6  1  1  0  0  0  0
  4  7  1  0  0  0  0
  7  8  1  0  0  0  0
  8  9  1  0  0  0  0
  8 10  2  0  0  0  0
  9 11  1  0  0  0  0
 11 12  2  0  0  0  0
 12 13  1  0  0  0  0
 13 14  2  0  0  0  0
 14 15  1  0  0  0  0
 15 16  2  0  0  0  0
 16 11  1  0  0  0  0
 14 17  1  0  0  0  0
 17 18  1  0  0  0  0
M  END
> <Molecule Name>
970

> <CDD Number>
CDD-16233

> <Human_sEH_IC50_uM>
4.8

> <Mouse_sEH_IC50_uM>
1.4

$$$$

SketchEl molfile

 17 18  0  0  0  0  0  0  0  0999 V2000
    0.0000    0.9967    0.0000 C   0  0  0  0  0  0  0  0  0  0  0  0
    0.9899    0.0067    0.0000 C   0  0  0  0  0  0  0  0  0  0  0  0
    2.2063    0.7000    0.0000 C   0  0  0  0  0  0  0  0  0  0  0  0
    3.6061    0.7000    0.0000 C   0  0  0  0  0  0  0  0  0  0  0  0
    2.6163    1.6901    0.0000 C   0  0  0  0  0  0  0  0  0  0  0  0
    1.3998    0.9967    0.0000 C   0  0  0  0  0  0  0  0  0  0  0  0
    4.8186    0.0000    0.0000 N   0  0  0  0  0  0  0  0  0  0  0  0
    6.0310    0.7000    0.0000 C   0  0  0  0  0  0  0  0  0  0  0  0
    7.2434    0.0000    0.0000 C   0  0  0  0  0  0  0  0  0  0  0  0
    6.0310    2.1000    0.0000 O   0  0  0  0  0  0  0  0  0  0  0  0
    8.4559    0.7000    0.0000 C   0  0  0  0  0  0  0  0  0  0  0  0
    9.6683    0.0000    0.0000 C   0  0  0  0  0  0  0  0  0  0  0  0
   10.8807    0.7000    0.0000 C   0  0  0  0  0  0  0  0  0  0  0  0
   10.8807    2.1000    0.0000 C   0  0  0  0  0  0  0  0  0  0  0  0
    9.6683    2.8000    0.0000 C   0  0  0  0  0  0  0  0  0  0  0  0
    8.4559    2.1000    0.0000 C   0  0  0  0  0  0  0  0  0  0  0  0
   12.0932    0.0000    0.0000 Cl  0  0  0  0  0  0  0  0  0  0  0  0
  1  2  1  0  0  0  0
  2  3  1  0  0  0  0
  3  4  1  0  0  0  0
  4  5  1  0  0  0  0
  5  6  1  0  0  0  0
  6  1  1  0  0  0  0
  4  7  1  0  0  0  0
  7  8  1  0  0  0  0
  8  9  1  0  0  0  0
  8 10  2  0  0  0  0
  9 11  1  0  0  0  0
 11 12  2  0  0  0  0
 12 13  1  0  0  0  0
 13 14  2  0  0  0  0
 14 15  1  0  0  0  0
 15 16  2  0  0  0  0
 16 11  1  0  0  0  0
 13 17  1  0  0  0  0
M  END
> <Molecule Name>
969

> <CDD Number>
CDD-16232

> <Human_sEH_IC50_uM>
38.0

> <Mouse_sEH_IC50_uM>
0.56

$$$$

SketchEl molfile

 16 17  0  0  0  0  0  0  0  0999 V2000
    0.0000    0.9967    0.0000 C   0  0  0  0  0  0  0  0  0  0  0  0
    0.9899    0.0067    0.0000 C   0  0  0  0  0  0  0  0  0  0  0  0
    2.2063    0.7000    0.0000 C   0  0  0  0  0  0  0  0  0  0  0  0
    3.6061    0.7000    0.0000 C   0  0  0  0  0  0  0  0  0  0  0  0
    2.6163    1.6901    0.0000 C   0  0  0  0  0  0  0  0  0  0  0  0
    1.3998    0.9967    0.0000 C   0  0  0  0  0  0  0  0  0  0  0  0
    4.8186    0.0000    0.0000 N   0  0  0  0  0  0  0  0  0  0  0  0
    6.0310    0.7000    0.0000 C   0  0  0  0  0  0  0  0  0  0  0  0
    6.0310    2.1000    0.0000 O   0  0  0  0  0  0  0  0  0  0  0  0
    7.2434    0.0000    0.0000 C   0  0  0  0  0  0  0  0  0  0  0  0
    8.4559    0.7000    0.0000 C   0  0  0  0  0  0  0  0  0  0  0  0
    9.6683    0.0000    0.0000 C   0  0  0  0  0  0  0  0  0  0  0  0
   10.8807    0.7000    0.0000 C   0  0  0  0  0  0  0  0  0  0  0  0
   10.8807    2.1000    0.0000 C   0  0  0  0  0  0  0  0  0  0  0  0
    9.6683    2.8000    0.0000 C   0  0  0  0  0  0  0  0  0  0  0  0
    8.4559    2.1000    0.0000 C   0  0  0  0  0  0  0  0  0  0  0  0
  1  2  1  0  0  0  0
  2  3  1  0  0  0  0
  3  4  1  0  0  0  0
  4  5  1  0  0  0  0
  5  6  1  0  0  0  0
  6  1  1  0  0  0  0
  4  7  1  0  0  0  0
  7  8  1  0  0  0  0
  8  9  2  0  0  0  0
  8 10  1  0  0  0  0
 10 11  1  0  0  0  0
 11 12  2  0  0  0  0
 12 13  1  0  0  0  0
 13 14  2  0  0  0  0
 14 15  1  0  0  0  0
 15 16  2  0  0  0  0
 16 11  1  0  0  0  0
M  END
> <Molecule Name>
968

> <CDD Number>
CDD-16231

> <Human_sEH_IC50_uM>
14.0

> <Mouse_sEH_IC50_uM>
2.4

$$$$

SketchEl molfile

 23 26  0  0  0  0  0  0  0  0999 V2000
    2.7861    4.8560    0.0000 C   0  0  0  0  0  0  0  0  0  0  0  0
    1.3848    4.8560    0.0000 C   0  0  0  0  0  0  0  0  0  0  0  0
    1.0139    3.5044    0.0000 C   0  0  0  0  0  0  0  0  0  0  0  0
    0.0000    2.5275    0.0000 C   0  0  0  0  0  0  0  0  0  0  0  0
    1.3848    2.5275    0.0000 C   0  0  0  0  0  0  0  0  0  0  0  0
    1.7516    3.8753    0.0000 C   0  0  0  0  0  0  0  0  0  0  0  0
    3.9977    4.1554    0.0000 C   0  0  0  0  0  0  0  0  0  0  0  0
    3.6351    2.8037    0.0000 C   0  0  0  0  0  0  0  0  0  0  0  0
    2.5964    1.8269    0.0000 C   0  0  0  0  0  0  0  0  0  0  0  0
    2.2255    2.8037    0.0000 C   0  0  0  0  0  0  0  0  0  0  0  0
    4.8467    2.1031    0.0000 C   0  0  0  0  0  0  0  0  0  0  0  0
    6.0583    2.8037    0.0000 C   0  0  0  0  0  0  0  0  0  0  0  0
    6.0583    4.2050    0.0000 O   0  0  0  0  0  0  0  0  0  0  0  0
    7.2699    2.1031    0.0000 N   0  0  0  0  0  0  0  0  0  0  0  0
    8.4818    2.8037    0.0000 C   0  0  0  0  0  0  0  0  0  0  0  0
    9.6934    2.1031    0.0000 C   0  0  0  0  0  0  0  0  0  0  0  0
   10.9050    2.8037    0.0000 C   0  0  0  0  0  0  0  0  0  0  0  0
   12.1166    2.1031    0.0000 C   0  0  0  0  0  0  0  0  0  0  0  0
   12.1152    0.7019    0.0000 C   0  0  0  0  0  0  0  0  0  0  0  0
   13.3280    0.0000    0.0000 C   0  0  0  0  0  0  0  0  0  0  0  0
   14.5422    0.7019    0.0000 C   0  0  0  0  0  0  0  0  0  0  0  0
   14.5422    2.1031    0.0000 C   0  0  0  0  0  0  0  0  0  0  0  0
   13.3280    2.8050    0.0000 C   0  0  0  0  0  0  0  0  0  0  0  0
  1  2  1  0  0  0  0
  2  3  1  0  0  0  0
  3  4  1  0  0  0  0
  4  5  1  0  0  0  0
  5  6  1  0  0  0  0
  1  6  1  0  0  0  0
  1  7  1  0  0  0  0
  7  8  1  0  0  0  0
  5  9  1  0  0  0  0
  8  9  1  0  0  0  0
  3 10  1  0  0  0  0
  8 10  1  0  0  0  0
  8 11  1  0  0  0  0
 11 12  1  0  0  0  0
 12 13  2  0  0  0  0
 12 14  1  0  0  0  0
 14 15  1  0  0  0  0
 15 16  1  0  0  0  0
 16 17  1  0  0  0  0
 17 18  1  0  0  0  0
 18 19  2  0  0  0  0
 19 20  1  0  0  0  0
 20 21  2  0  0  0  0
 21 22  1  0  0  0  0
 22 23  2  0  0  0  0
 23 18  1  0  0  0  0
M  END
> <Molecule Name>
967

> <CDD Number>
CDD-16230

> <Human_sEH_IC50_uM>
0.12

> <Mouse_sEH_IC50_uM>
0.07

$$$$

SketchEl molfile

 17 18  0  0  0  0  0  0  0  0999 V2000
    0.0000    0.9967    0.0000 C   0  0  0  0  0  0  0  0  0  0  0  0
    0.9899    0.0067    0.0000 C   0  0  0  0  0  0  0  0  0  0  0  0
    2.2063    0.7000    0.0000 C   0  0  0  0  0  0  0  0  0  0  0  0
    3.6061    0.7000    0.0000 C   0  0  0  0  0  0  0  0  0  0  0  0
    2.6163    1.6901    0.0000 C   0  0  0  0  0  0  0  0  0  0  0  0
    1.3998    0.9967    0.0000 C   0  0  0  0  0  0  0  0  0  0  0  0
    4.8186    0.0000    0.0000 C   0  0  0  0  0  0  0  0  0  0  0  0
    6.0310    0.7000    0.0000 C   0  0  0  0  0  0  0  0  0  0  0  0
    7.2434    0.0000    0.0000 N   0  0  0  0  0  0  0  0  0  0  0  0
    6.0310    2.1000    0.0000 O   0  0  0  0  0  0  0  0  0  0  0  0
    8.4559    0.7000    0.0000 C   0  0  0  0  0  0  0  0  0  0  0  0
    9.6683    0.0000    0.0000 C   0  0  0  0  0  0  0  0  0  0  0  0
   10.8807    0.7000    0.0000 C   0  0  0  0  0  0  0  0  0  0  0  0
   10.8807    2.1000    0.0000 C   0  0  0  0  0  0  0  0  0  0  0  0
    9.6683    2.8000    0.0000 C   0  0  0  0  0  0  0  0  0  0  0  0
    8.4559    2.1000    0.0000 C   0  0  0  0  0  0  0  0  0  0  0  0
   12.0932    0.0000    0.0000 Cl  0  0  0  0  0  0  0  0  0  0  0  0
  1  2  1  0  0  0  0
  2  3  1  0  0  0  0
  3  4  1  0  0  0  0
  4  5  1  0  0  0  0
  5  6  1  0  0  0  0
  6  1  1  0  0  0  0
  4  7  1  0  0  0  0
  7  8  1  0  0  0  0
  8  9  1  0  0  0  0
  8 10  2  0  0  0  0
  9 11  1  0  0  0  0
 11 12  2  0  0  0  0
 12 13  1  0  0  0  0
 13 14  2  0  0  0  0
 14 15  1  0  0  0  0
 15 16  2  0  0  0  0
 16 11  1  0  0  0  0
 13 17  1  0  0  0  0
M  END
> <Molecule Name>
966

> <CDD Number>
CDD-16229

> <Human_sEH_IC50_uM>
2.1

> <Mouse_sEH_IC50_uM>
0.58

$$$$

SketchEl molfile

 18 19  0  0  0  0  0  0  0  0999 V2000
    0.0000    0.9967    0.0000 C   0  0  0  0  0  0  0  0  0  0  0  0
    0.9899    0.0067    0.0000 C   0  0  0  0  0  0  0  0  0  0  0  0
    2.2063    0.7000    0.0000 C   0  0  0  0  0  0  0  0  0  0  0  0
    3.6061    0.7000    0.0000 C   0  0  0  0  0  0  0  0  0  0  0  0
    2.6163    1.6901    0.0000 C   0  0  0  0  0  0  0  0  0  0  0  0
    1.3998    0.9967    0.0000 C   0  0  0  0  0  0  0  0  0  0  0  0
    4.8186    0.0000    0.0000 C   0  0  0  0  0  0  0  0  0  0  0  0
    6.0310    0.7000    0.0000 C   0  0  0  0  0  0  0  0  0  0  0  0
    6.0310    2.1000    0.0000 O   0  0  0  0  0  0  0  0  0  0  0  0
    7.2434    0.0000    0.0000 N   0  0  0  0  0  0  0  0  0  0  0  0
    8.4559    0.7000    0.0000 C   0  0  0  0  0  0  0  0  0  0  0  0
    9.6683    0.0000    0.0000 C   0  0  0  0  0  0  0  0  0  0  0  0
   10.8807    0.7000    0.0000 C   0  0  0  0  0  0  0  0  0  0  0  0
   10.8807    2.1000    0.0000 C   0  0  0  0  0  0  0  0  0  0  0  0
    9.6683    2.8000    0.0000 C   0  0  0  0  0  0  0  0  0  0  0  0
    8.4559    2.1000    0.0000 C   0  0  0  0  0  0  0  0  0  0  0  0
   12.0932    2.8000    0.0000 O   0  0  0  0  0  0  0  0  0  0  0  0
   13.3056    2.1000    0.0000 C   0  0  0  0  0  0  0  0  0  0  0  0
  1  2  1  0  0  0  0
  2  3  1  0  0  0  0
  3  4  1  0  0  0  0
  4  5  1  0  0  0  0
  5  6  1  0  0  0  0
  6  1  1  0  0  0  0
  4  7  1  0  0  0  0
  7  8  1  0  0  0  0
  8  9  2  0  0  0  0
  8 10  1  0  0  0  0
 10 11  1  0  0  0  0
 11 12  2  0  0  0  0
 12 13  1  0  0  0  0
 13 14  2  0  0  0  0
 14 15  1  0  0  0  0
 15 16  2  0  0  0  0
 16 11  1  0  0  0  0
 14 17  1  0  0  0  0
 17 18  1  0  0  0  0
M  END
> <Molecule Name>
965

> <CDD Number>
CDD-16228

> <Human_sEH_IC50_uM>
6.0

> <Mouse_sEH_IC50_uM>
0.15

$$$$

SketchEl molfile

 16 17  0  0  0  0  0  0  0  0999 V2000
    0.0000    0.9967    0.0000 C   0  0  0  0  0  0  0  0  0  0  0  0
    0.9899    0.0067    0.0000 C   0  0  0  0  0  0  0  0  0  0  0  0
    2.2063    0.7000    0.0000 C   0  0  0  0  0  0  0  0  0  0  0  0
    3.6061    0.7000    0.0000 C   0  0  0  0  0  0  0  0  0  0  0  0
    2.6163    1.6901    0.0000 C   0  0  0  0  0  0  0  0  0  0  0  0
    1.3998    0.9967    0.0000 C   0  0  0  0  0  0  0  0  0  0  0  0
    4.8186    0.0000    0.0000 C   0  0  0  0  0  0  0  0  0  0  0  0
    6.0310    0.7000    0.0000 C   0  0  0  0  0  0  0  0  0  0  0  0
    6.0310    2.1000    0.0000 O   0  0  0  0  0  0  0  0  0  0  0  0
    7.2434    0.0000    0.0000 N   0  0  0  0  0  0  0  0  0  0  0  0
    8.4559    0.7000    0.0000 C   0  0  0  0  0  0  0  0  0  0  0  0
    9.6683    0.0000    0.0000 C   0  0  0  0  0  0  0  0  0  0  0  0
   10.8807    0.7000    0.0000 C   0  0  0  0  0  0  0  0  0  0  0  0
   10.8807    2.1000    0.0000 C   0  0  0  0  0  0  0  0  0  0  0  0
    9.6683    2.8000    0.0000 C   0  0  0  0  0  0  0  0  0  0  0  0
    8.4559    2.1000    0.0000 C   0  0  0  0  0  0  0  0  0  0  0  0
  1  2  1  0  0  0  0
  2  3  1  0  0  0  0
  3  4  1  0  0  0  0
  4  5  1  0  0  0  0
  5  6  1  0  0  0  0
  6  1  1  0  0  0  0
  4  7  1  0  0  0  0
  7  8  1  0  0  0  0
  8  9  2  0  0  0  0
  8 10  1  0  0  0  0
 10 11  1  0  0  0  0
 11 12  2  0  0  0  0
 12 13  1  0  0  0  0
 13 14  2  0  0  0  0
 14 15  1  0  0  0  0
 15 16  2  0  0  0  0
 16 11  1  0  0  0  0
M  END
> <Molecule Name>
964

> <CDD Number>
CDD-16227

> <Human_sEH_IC50_uM>
16.0

> <Mouse_sEH_IC50_uM>
3.7

$$$$

SketchEl molfile

 15 15  0  0  0  0  0  0  0  0999 V2000
    0.0000    0.9967    0.0000 C   0  0  0  0  0  0  0  0  0  0  0  0
    0.9899    0.0067    0.0000 C   0  0  0  0  0  0  0  0  0  0  0  0
    2.2063    0.7000    0.0000 C   0  0  0  0  0  0  0  0  0  0  0  0
    3.6061    0.7000    0.0000 C   0  0  0  0  0  0  0  0  0  0  0  0
    2.6163    1.6901    0.0000 C   0  0  0  0  0  0  0  0  0  0  0  0
    1.3998    0.9967    0.0000 C   0  0  0  0  0  0  0  0  0  0  0  0
    4.8186    0.0000    0.0000 C   0  0  0  0  0  0  0  0  0  0  0  0
    6.0310    0.7000    0.0000 C   0  0  0  0  0  0  0  0  0  0  0  0
    6.0310    2.1000    0.0000 O   0  0  0  0  0  0  0  0  0  0  0  0
    7.2434    0.0000    0.0000 N   0  0  0  0  0  0  0  0  0  0  0  0
    8.4559    0.7000    0.0000 C   0  0  0  0  0  0  0  0  0  0  0  0
    9.6683    0.0000    0.0000 C   0  0  0  0  0  0  0  0  0  0  0  0
   10.8807    0.7000    0.0000 C   0  0  0  0  0  0  0  0  0  0  0  0
   12.0932    0.0000    0.0000 O   0  0  0  0  0  0  0  0  0  0  0  0
   10.8807    2.1000    0.0000 O   0  0  0  0  0  0  0  0  0  0  0  0
  1  2  1  0  0  0  0
  2  3  1  0  0  0  0
  3  4  1  0  0  0  0
  4  5  1  0  0  0  0
  5  6  1  0  0  0  0
  6  1  1  0  0  0  0
  4  7  1  0  0  0  0
  7  8  1  0  0  0  0
  8  9  2  0  0  0  0
  8 10  1  0  0  0  0
 10 11  1  0  0  0  0
 11 12  1  0  0  0  0
 12 13  1  0  0  0  0
 13 14  1  0  0  0  0
 13 15  2  0  0  0  0
M  END
> <Molecule Name>
963

> <CDD Number>
CDD-16226

> <Human_sEH_IC50_uM>
100.0

> <Mouse_sEH_IC50_uM>
100.0

$$$$

SketchEl molfile

 14 14  0  0  0  0  0  0  0  0999 V2000
    0.0000    2.3967    0.0000 C   0  0  0  0  0  0  0  0  0  0  0  0
    0.9899    1.4067    0.0000 C   0  0  0  0  0  0  0  0  0  0  0  0
    2.2063    2.1000    0.0000 C   0  0  0  0  0  0  0  0  0  0  0  0
    3.6061    2.1000    0.0000 C   0  0  0  0  0  0  0  0  0  0  0  0
    2.6163    3.0901    0.0000 C   0  0  0  0  0  0  0  0  0  0  0  0
    1.3998    2.3967    0.0000 C   0  0  0  0  0  0  0  0  0  0  0  0
    4.8186    1.4000    0.0000 C   0  0  0  0  0  0  0  0  0  0  0  0
    6.0310    2.1000    0.0000 C   0  0  0  0  0  0  0  0  0  0  0  0
    6.0310    3.5000    0.0000 O   0  0  0  0  0  0  0  0  0  0  0  0
    7.2434    1.4000    0.0000 N   0  0  0  0  0  0  0  0  0  0  0  0
    8.4559    2.1000    0.0000 C   0  0  0  0  0  0  0  0  0  0  0  0
    9.6683    1.4000    0.0000 C   0  0  0  0  0  0  0  0  0  0  0  0
    9.6683    0.0000    0.0000 O   0  0  0  0  0  0  0  0  0  0  0  0
   10.8807    2.1000    0.0000 O   0  0  0  0  0  0  0  0  0  0  0  0
  1  2  1  0  0  0  0
  2  3  1  0  0  0  0
  3  4  1  0  0  0  0
  4  5  1  0  0  0  0
  5  6  1  0  0  0  0
  6  1  1  0  0  0  0
  4  7  1  0  0  0  0
  7  8  1  0  0  0  0
  8  9  2  0  0  0  0
  8 10  1  0  0  0  0
 10 11  1  0  0  0  0
 11 12  1  0  0  0  0
 12 13  2  0  0  0  0
 12 14  1  0  0  0  0
M  END
> <Molecule Name>
962

> <CDD Number>
CDD-16225

> <Human_sEH_IC50_uM>
100.0

> <Mouse_sEH_IC50_uM>
100.0

$$$$

SketchEl molfile

 32 35  0  0  0  0  0  0  0  0999 V2000
    2.7836    3.0471    0.0000 C   0  0  0  0  0  0  0  0  0  0  0  0
    1.3836    3.0471    0.0000 C   0  0  0  0  0  0  0  0  0  0  0  0
    1.0130    1.6967    0.0000 C   0  0  0  0  0  0  0  0  0  0  0  0
    0.0000    0.7207    0.0000 C   0  0  0  0  0  0  0  0  0  0  0  0
    1.3836    0.7207    0.0000 C   0  0  0  0  0  0  0  0  0  0  0  0
    1.7500    2.0673    0.0000 C   0  0  0  0  0  0  0  0  0  0  0  0
    3.9941    2.3471    0.0000 C   0  0  0  0  0  0  0  0  0  0  0  0
    3.6319    0.9967    0.0000 C   0  0  0  0  0  0  0  0  0  0  0  0
    2.5941    0.0207    0.0000 C   0  0  0  0  0  0  0  0  0  0  0  0
    2.2235    0.9967    0.0000 C   0  0  0  0  0  0  0  0  0  0  0  0
    4.8424    0.2967    0.0000 N   0  0  0  0  0  0  0  0  0  0  0  0
    6.0529    0.9967    0.0000 C   0  0  0  0  0  0  0  0  0  0  0  0
    6.0529    2.3967    0.0000 O   0  0  0  0  0  0  0  0  0  0  0  0
    7.2635    0.2967    0.0000 N   0  0  0  0  0  0  0  0  0  0  0  0
    8.4743    0.9967    0.0000 C   0  0  0  0  0  0  0  0  0  0  0  0
    9.4643    0.0067    0.0000 C   0  0  0  0  0  0  0  0  0  0  0  0
   10.6806    0.7000    0.0000 C   0  0  0  0  0  0  0  0  0  0  0  0
   12.0804    0.7000    0.0000 C   0  0  0  0  0  0  0  0  0  0  0  0
   11.0906    1.6901    0.0000 C   0  0  0  0  0  0  0  0  0  0  0  0
    9.8741    0.9967    0.0000 C   0  0  0  0  0  0  0  0  0  0  0  0
   13.2929    0.0000    0.0000 O   0  0  0  0  0  0  0  0  0  0  0  0
   14.5053    0.7000    0.0000 C   0  0  0  0  0  0  0  0  0  0  0  0
   15.7178    0.0000    0.0000 C   0  0  0  0  0  0  0  0  0  0  0  0
   16.9302    0.7000    0.0000 C   0  0  0  0  0  0  0  0  0  0  0  0
   18.1426    0.0000    0.0000 C   0  0  0  0  0  0  0  0  0  0  0  0
   19.3551    0.7000    0.0000 C   0  0  0  0  0  0  0  0  0  0  0  0
   20.5675    0.0000    0.0000 C   0  0  0  0  0  0  0  0  0  0  0  0
   21.7799    0.7000    0.0000 C   0  0  0  0  0  0  0  0  0  0  0  0
   22.9924    0.0000    0.0000 O   0  0  0  0  0  0  0  0  0  0  0  0
   21.7799    2.1000    0.0000 O   0  0  0  0  0  0  0  0  0  0  0  0
   24.2048    0.7000    0.0000 C   0  0  0  0  0  0  0  0  0  0  0  0
   25.4172    0.0000    0.0000 C   0  0  0  0  0  0  0  0  0  0  0  0
  1  2  1  0  0  0  0
  2  3  1  0  0  0  0
  3  4  1  0  0  0  0
  4  5  1  0  0  0  0
  5  6  1  0  0  0  0
  1  6  1  0  0  0  0
  1  7  1  0  0  0  0
  7  8  1  0  0  0  0
  5  9  1  0  0  0  0
  8  9  1  0  0  0  0
  3 10  1  0  0  0  0
  8 10  1  0  0  0  0
  8 11  1  0  0  0  0
 11 12  1  0  0  0  0
 12 13  2  0  0  0  0
 12 14  1  0  0  0  0
 14 15  1  0  0  0  0
 15 16  1  0  0  0  0
 16 17  1  0  0  0  0
 17 18  1  0  0  0  0
 18 19  1  0  0  0  0
 19 20  1  0  0  0  0
 20 15  1  0  0  0  0
 18 21  1  0  0  0  0
 21 22  1  0  0  0  0
 22 23  1  0  0  0  0
 23 24  1  0  0  0  0
 24 25  1  0  0  0  0
 25 26  1  0  0  0  0
 26 27  1  0  0  0  0
 27 28  1  0  0  0  0
 28 29  1  0  0  0  0
 28 30  2  0  0  0  0
 29 31  1  0  0  0  0
 31 32  1  0  0  0  0
M  END
> <Molecule Name>
961

> <CDD Number>
CDD-16224

> <Human_sEH_IC50_uM>
0.1

> <Mouse_sEH_IC50_uM>
0.05

$$$$

SketchEl molfile

 28 31  0  0  0  0  0  0  0  0999 V2000
    2.7836    4.2830    0.0000 C   0  0  0  0  0  0  0  0  0  0  0  0
    1.3836    4.2830    0.0000 C   0  0  0  0  0  0  0  0  0  0  0  0
    1.0130    2.9325    0.0000 C   0  0  0  0  0  0  0  0  0  0  0  0
    0.0000    1.9565    0.0000 C   0  0  0  0  0  0  0  0  0  0  0  0
    1.3836    1.9565    0.0000 C   0  0  0  0  0  0  0  0  0  0  0  0
    1.7500    3.3031    0.0000 C   0  0  0  0  0  0  0  0  0  0  0  0
    3.9941    3.5830    0.0000 C   0  0  0  0  0  0  0  0  0  0  0  0
    3.6319    2.2325    0.0000 C   0  0  0  0  0  0  0  0  0  0  0  0
    2.5941    1.2565    0.0000 C   0  0  0  0  0  0  0  0  0  0  0  0
    2.2235    2.2325    0.0000 C   0  0  0  0  0  0  0  0  0  0  0  0
    4.8424    1.5325    0.0000 N   0  0  0  0  0  0  0  0  0  0  0  0
    6.0529    2.2325    0.0000 C   0  0  0  0  0  0  0  0  0  0  0  0
    6.0529    3.6325    0.0000 O   0  0  0  0  0  0  0  0  0  0  0  0
    7.2635    1.5325    0.0000 N   0  0  0  0  0  0  0  0  0  0  0  0
    8.4743    2.2325    0.0000 C   0  0  0  0  0  0  0  0  0  0  0  0
    9.4643    1.2426    0.0000 C   0  0  0  0  0  0  0  0  0  0  0  0
   10.6806    1.9358    0.0000 C   0  0  0  0  0  0  0  0  0  0  0  0
   12.0804    1.9358    0.0000 C   0  0  0  0  0  0  0  0  0  0  0  0
   11.0906    2.9259    0.0000 C   0  0  0  0  0  0  0  0  0  0  0  0
    9.8741    2.2325    0.0000 C   0  0  0  0  0  0  0  0  0  0  0  0
   13.3738    1.4000    0.0000 C   0  0  0  0  0  0  0  0  0  0  0  0
   13.3738    0.0000    0.0000 O   0  0  0  0  0  0  0  0  0  0  0  0
   14.5379    2.1778    0.0000 N   0  0  0  0  0  0  0  0  0  0  0  0
   15.7935    1.5585    0.0000 C   0  0  0  0  0  0  0  0  0  0  0  0
   16.9576    2.3363    0.0000 C   0  0  0  0  0  0  0  0  0  0  0  0
   18.2132    1.7171    0.0000 C   0  0  0  0  0  0  0  0  0  0  0  0
   19.3773    2.4948    0.0000 C   0  0  0  0  0  0  0  0  0  0  0  0
   20.6329    1.8756    0.0000 C   0  0  0  0  0  0  0  0  0  0  0  0
  1  2  1  0  0  0  0
  2  3  1  0  0  0  0
  3  4  1  0  0  0  0
  4  5  1  0  0  0  0
  5  6  1  0  0  0  0
  1  6  1  0  0  0  0
  1  7  1  0  0  0  0
  7  8  1  0  0  0  0
  5  9  1  0  0  0  0
  8  9  1  0  0  0  0
  3 10  1  0  0  0  0
  8 10  1  0  0  0  0
  8 11  1  0  0  0  0
 11 12  1  0  0  0  0
 12 13  2  0  0  0  0
 12 14  1  0  0  0  0
 14 15  1  0  0  0  0
 15 16  1  0  0  0  0
 16 17  1  0  0  0  0
 17 18  1  0  0  0  0
 18 19  1  0  0  0  0
 19 20  1  0  0  0  0
 20 15  1  0  0  0  0
 18 21  1  0  0  0  0
 21 22  2  0  0  0  0
 21 23  1  0  0  0  0
 23 24  1  0  0  0  0
 24 25  1  0  0  0  0
 25 26  1  0  0  0  0
 26 27  1  0  0  0  0
 27 28  1  0  0  0  0
M  END
> <Molecule Name>
960

> <CDD Number>
CDD-16223

> <Human_sEH_IC50_uM>
0.1

> <Mouse_sEH_IC50_uM>
0.05

$$$$

SketchEl molfile

 27 30  0  0  0  0  0  0  0  0999 V2000
    2.7836    4.1505    0.0000 C   0  0  0  0  0  0  0  0  0  0  0  0
    1.3836    4.1505    0.0000 C   0  0  0  0  0  0  0  0  0  0  0  0
    1.0130    2.8000    0.0000 C   0  0  0  0  0  0  0  0  0  0  0  0
    0.0000    1.8240    0.0000 C   0  0  0  0  0  0  0  0  0  0  0  0
    1.3836    1.8240    0.0000 C   0  0  0  0  0  0  0  0  0  0  0  0
    1.7500    3.1706    0.0000 C   0  0  0  0  0  0  0  0  0  0  0  0
    3.9941    3.4505    0.0000 C   0  0  0  0  0  0  0  0  0  0  0  0
    3.6319    2.1000    0.0000 C   0  0  0  0  0  0  0  0  0  0  0  0
    2.5941    1.1240    0.0000 C   0  0  0  0  0  0  0  0  0  0  0  0
    2.2235    2.1000    0.0000 C   0  0  0  0  0  0  0  0  0  0  0  0
    4.8424    1.4000    0.0000 N   0  0  0  0  0  0  0  0  0  0  0  0
    6.0529    2.1000    0.0000 C   0  0  0  0  0  0  0  0  0  0  0  0
    6.0529    3.5000    0.0000 O   0  0  0  0  0  0  0  0  0  0  0  0
    7.2635    1.4000    0.0000 N   0  0  0  0  0  0  0  0  0  0  0  0
    8.4743    2.1000    0.0000 C   0  0  0  0  0  0  0  0  0  0  0  0
    9.6848    1.4000    0.0000 C   0  0  0  0  0  0  0  0  0  0  0  0
   10.8954    2.1000    0.0000 C   0  0  0  0  0  0  0  0  0  0  0  0
   12.1059    1.4000    0.0000 C   0  0  0  0  0  0  0  0  0  0  0  0
   13.3164    2.1000    0.0000 O   0  0  0  0  0  0  0  0  0  0  0  0
   14.5288    1.4000    0.0000 C   0  0  0  0  0  0  0  0  0  0  0  0
   15.7413    2.1000    0.0000 C   0  0  0  0  0  0  0  0  0  0  0  0
   16.9537    1.4000    0.0000 C   0  0  0  0  0  0  0  0  0  0  0  0
   18.1662    2.1000    0.0000 C   0  0  0  0  0  0  0  0  0  0  0  0
   19.3786    1.4000    0.0000 C   0  0  0  0  0  0  0  0  0  0  0  0
   12.1059    0.0000    0.0000 O   0  0  0  0  0  0  0  0  0  0  0  0
    7.2635    0.0000    0.0000 C   0  0  0  0  0  0  0  0  0  0  0  0
    4.8424    0.0000    0.0000 C   0  0  0  0  0  0  0  0  0  0  0  0
  1  2  1  0  0  0  0
  2  3  1  0  0  0  0
  3  4  1  0  0  0  0
  4  5  1  0  0  0  0
  5  6  1  0  0  0  0
  1  6  1  0  0  0  0
  1  7  1  0  0  0  0
  7  8  1  0  0  0  0
  5  9  1  0  0  0  0
  8  9  1  0  0  0  0
  3 10  1  0  0  0  0
  8 10  1  0  0  0  0
  8 11  1  0  0  0  0
 11 12  1  0  0  0  0
 12 13  2  0  0  0  0
 12 14  1  0  0  0  0
 14 15  1  0  0  0  0
 15 16  1  0  0  0  0
 16 17  1  0  0  0  0
 17 18  1  0  0  0  0
 18 19  1  0  0  0  0
 19 20  1  0  0  0  0
 20 21  1  0  0  0  0
 21 22  1  0  0  0  0
 22 23  1  0  0  0  0
 23 24  1  0  0  0  0
 18 25  2  0  0  0  0
 14 26  1  0  0  0  0
 11 27  1  0  0  0  0
 27 26  2  0  0  0  0
M  END
> <Molecule Name>
958

> <Human_sEH_IC50_uM>
17.0

> <Mouse_sEH_IC50_uM>
0.7

$$$$

SketchEl molfile

 26 28  0  0  0  0  0  0  0  0999 V2000
    2.7836    3.0265    0.0000 C   0  0  0  0  0  0  0  0  0  0  0  0
    1.3836    3.0265    0.0000 C   0  0  0  0  0  0  0  0  0  0  0  0
    1.0130    1.6760    0.0000 C   0  0  0  0  0  0  0  0  0  0  0  0
    0.0000    0.7000    0.0000 C   0  0  0  0  0  0  0  0  0  0  0  0
    1.3836    0.7000    0.0000 C   0  0  0  0  0  0  0  0  0  0  0  0
    1.7500    2.0466    0.0000 C   0  0  0  0  0  0  0  0  0  0  0  0
    3.9941    2.3265    0.0000 C   0  0  0  0  0  0  0  0  0  0  0  0
    3.6319    0.9760    0.0000 C   0  0  0  0  0  0  0  0  0  0  0  0
    2.5941    0.0000    0.0000 C   0  0  0  0  0  0  0  0  0  0  0  0
    2.2235    0.9760    0.0000 C   0  0  0  0  0  0  0  0  0  0  0  0
    4.8424    0.2760    0.0000 N   0  0  0  0  0  0  0  0  0  0  0  0
    6.0529    0.9760    0.0000 C   0  0  0  0  0  0  0  0  0  0  0  0
    6.0529    2.3760    0.0000 O   0  0  0  0  0  0  0  0  0  0  0  0
    7.2635    0.2760    0.0000 N   0  0  0  0  0  0  0  0  0  0  0  0
    8.4743    0.9760    0.0000 C   0  0  0  0  0  0  0  0  0  0  0  0
    9.6848    0.2760    0.0000 C   0  0  0  0  0  0  0  0  0  0  0  0
   10.8954    0.9760    0.0000 C   0  0  0  0  0  0  0  0  0  0  0  0
   12.1059    0.2760    0.0000 C   0  0  0  0  0  0  0  0  0  0  0  0
   13.3164    0.9760    0.0000 C   0  0  0  0  0  0  0  0  0  0  0  0
   14.5288    0.2760    0.0000 O   0  0  0  0  0  0  0  0  0  0  0  0
   15.7413    0.9760    0.0000 C   0  0  0  0  0  0  0  0  0  0  0  0
   16.9537    0.2760    0.0000 C   0  0  0  0  0  0  0  0  0  0  0  0
   18.1662    0.9760    0.0000 C   0  0  0  0  0  0  0  0  0  0  0  0
   19.3786    0.2760    0.0000 F   0  0  0  0  0  0  0  0  0  0  0  0
   18.1662    2.3760    0.0000 F   0  0  0  0  0  0  0  0  0  0  0  0
   19.3786    1.6760    0.0000 F   0  0  0  0  0  0  0  0  0  0  0  0
  1  2  1  0  0  0  0
  2  3  1  0  0  0  0
  3  4  1  0  0  0  0
  4  5  1  0  0  0  0
  5  6  1  0  0  0  0
  1  6  1  0  0  0  0
  1  7  1  0  0  0  0
  7  8  1  0  0  0  0
  5  9  1  0  0  0  0
  8  9  1  0  0  0  0
  3 10  1  0  0  0  0
  8 10  1  0  0  0  0
  8 11  1  0  0  0  0
 11 12  1  0  0  0  0
 12 13  2  0  0  0  0
 12 14  1  0  0  0  0
 14 15  1  0  0  0  0
 15 16  1  0  0  0  0
 16 17  1  0  0  0  0
 17 18  1  0  0  0  0
 18 19  1  0  0  0  0
 19 20  1  0  0  0  0
 20 21  1  0  0  0  0
 21 22  1  0  0  0  0
 22 23  1  0  0  0  0
 23 24  1  0  0  0  0
 23 25  1  0  0  0  0
 23 26  1  0  0  0  0
M  END
> <Molecule Name>
957

> <CDD Number>
CDD-16221

> <Human_sEH_IC50_uM>
0.23

> <Mouse_sEH_IC50_uM>
0.05

$$$$

SketchEl molfile

 38 41  0  0  0  0  0  0  0  0999 V2000
    2.7836    6.2505    0.0000 C   0  0  0  0  0  0  0  0  0  0  0  0
    1.3836    6.2505    0.0000 C   0  0  0  0  0  0  0  0  0  0  0  0
    1.0130    4.9000    0.0000 C   0  0  0  0  0  0  0  0  0  0  0  0
    0.0000    3.9240    0.0000 C   0  0  0  0  0  0  0  0  0  0  0  0
    1.3836    3.9240    0.0000 C   0  0  0  0  0  0  0  0  0  0  0  0
    1.7500    5.2706    0.0000 C   0  0  0  0  0  0  0  0  0  0  0  0
    3.9941    5.5505    0.0000 C   0  0  0  0  0  0  0  0  0  0  0  0
    3.6319    4.2000    0.0000 C   0  0  0  0  0  0  0  0  0  0  0  0
    2.5941    3.2240    0.0000 C   0  0  0  0  0  0  0  0  0  0  0  0
    2.2235    4.2000    0.0000 C   0  0  0  0  0  0  0  0  0  0  0  0
    4.8424    3.5000    0.0000 N   0  0  0  0  0  0  0  0  0  0  0  0
    6.0529    4.2000    0.0000 C   0  0  0  0  0  0  0  0  0  0  0  0
    6.0529    5.6000    0.0000 O   0  0  0  0  0  0  0  0  0  0  0  0
    7.2635    3.5000    0.0000 N   0  0  0  0  0  0  0  0  0  0  0  0
    8.4743    4.2000    0.0000 C   0  0  0  0  0  0  0  0  0  0  0  0
    9.6848    3.5000    0.0000 C   0  0  0  0  0  0  0  0  0  0  0  0
   10.8954    4.2000    0.0000 C   0  0  0  0  0  0  0  0  0  0  0  0
   12.1059    3.5000    0.0000 C   0  0  0  0  0  0  0  0  0  0  0  0
   13.3164    4.2000    0.0000 C   0  0  0  0  0  0  0  0  0  0  0  0
   14.5288    3.5000    0.0000 O   0  0  0  0  0  0  0  0  0  0  0  0
   15.7413    4.2000    0.0000 C   0  0  0  0  0  0  0  0  0  0  0  0
   16.9537    3.5000    0.0000 C   0  0  0  0  0  0  0  0  0  0  0  0
   18.1661    4.2000    0.0000 O   0  0  0  0  0  0  0  0  0  0  0  0
   19.3786    3.5000    0.0000 C   0  0  0  0  0  0  0  0  0  0  0  0
   20.5910    4.2000    0.0000 C   0  0  0  0  0  0  0  0  0  0  0  0
   21.8035    3.5000    0.0000 O   0  0  0  0  0  0  0  0  0  0  0  0
   23.0159    4.2000    0.0000 C   0  0  0  0  0  0  0  0  0  0  0  0
   24.2283    3.5000    0.0000 C   0  0  0  0  0  0  0  0  0  0  0  0
   24.2283    2.1000    0.0000 C   0  0  0  0  0  0  0  0  0  0  0  0
   25.4408    1.4000    0.0000 C   0  0  0  0  0  0  0  0  0  0  0  0
   26.6532    2.1000    0.0000 C   0  0  0  0  0  0  0  0  0  0  0  0
   26.6532    3.5000    0.0000 C   0  0  0  0  0  0  0  0  0  0  0  0
   25.4408    4.2000    0.0000 C   0  0  0  0  0  0  0  0  0  0  0  0
   27.8656    1.4000    0.0000 C   0  0  0  0  0  0  0  0  0  0  0  0
   27.8656    0.0000    0.0000 O   0  0  0  0  0  0  0  0  0  0  0  0
   29.0781    2.1000    0.0000 O   0  0  0  0  0  0  0  0  0  0  0  0
   30.2905    1.4000    0.0000 C   0  0  0  0  0  0  0  0  0  0  0  0
   31.5029    2.1000    0.0000 C   0  0  0  0  0  0  0  0  0  0  0  0
  1  2  1  0  0  0  0
  2  3  1  0  0  0  0
  3  4  1  0  0  0  0
  4  5  1  0  0  0  0
  5  6  1  0  0  0  0
  1  6  1  0  0  0  0
  1  7  1  0  0  0  0
  7  8  1  0  0  0  0
  5  9  1  0  0  0  0
  8  9  1  0  0  0  0
  3 10  1  0  0  0  0
  8 10  1  0  0  0  0
  8 11  1  0  0  0  0
 11 12  1  0  0  0  0
 12 13  2  0  0  0  0
 12 14  1  0  0  0  0
 14 15  1  0  0  0  0
 15 16  1  0  0  0  0
 16 17  1  0  0  0  0
 17 18  1  0  0  0  0
 18 19  1  0  0  0  0
 19 20  1  0  0  0  0
 20 21  1  0  0  0  0
 21 22  1  0  0  0  0
 22 23  1  0  0  0  0
 23 24  1  0  0  0  0
 25 24  1  0  0  0  0
 26 25  1  0  0  0  0
 27 26  1  0  0  0  0
 28 27  1  0  0  0  0
 28 29  2  0  0  0  0
 29 30  1  0  0  0  0
 30 31  2  0  0  0  0
 31 32  1  0  0  0  0
 32 33  2  0  0  0  0
 33 28  1  0  0  0  0
 31 34  1  0  0  0  0
 34 35  2  0  0  0  0
 34 36  1  0  0  0  0
 36 37  1  0  0  0  0
 37 38  1  0  0  0  0
M  END
> <Molecule Name>
956

> <CDD Number>
CDD-16220

> <Human_sEH_IC50_uM>
0.1

> <Mouse_sEH_IC50_uM>
0.05

$$$$

SketchEl molfile

 26 28  0  0  0  0  0  0  0  0999 V2000
    2.7836    4.1505    0.0000 C   0  0  0  0  0  0  0  0  0  0  0  0
    1.3836    4.1505    0.0000 C   0  0  0  0  0  0  0  0  0  0  0  0
    1.0130    2.8000    0.0000 C   0  0  0  0  0  0  0  0  0  0  0  0
    0.0000    1.8240    0.0000 C   0  0  0  0  0  0  0  0  0  0  0  0
    1.3836    1.8240    0.0000 C   0  0  0  0  0  0  0  0  0  0  0  0
    1.7500    3.1706    0.0000 C   0  0  0  0  0  0  0  0  0  0  0  0
    3.9941    3.4505    0.0000 C   0  0  0  0  0  0  0  0  0  0  0  0
    3.6319    2.1000    0.0000 C   0  0  0  0  0  0  0  0  0  0  0  0
    2.5941    1.1240    0.0000 C   0  0  0  0  0  0  0  0  0  0  0  0
    2.2235    2.1000    0.0000 C   0  0  0  0  0  0  0  0  0  0  0  0
    4.8424    1.4000    0.0000 N   0  0  0  0  0  0  0  0  0  0  0  0
    6.0529    2.1000    0.0000 C   0  0  0  0  0  0  0  0  0  0  0  0
    6.0529    3.5000    0.0000 O   0  0  0  0  0  0  0  0  0  0  0  0
    7.2635    1.4000    0.0000 N   0  0  0  0  0  0  0  0  0  0  0  0
    8.4743    2.1000    0.0000 C   0  0  0  0  0  0  0  0  0  0  0  0
    9.6848    1.4000    0.0000 C   0  0  0  0  0  0  0  0  0  0  0  0
   10.8954    2.1000    0.0000 C   0  0  0  0  0  0  0  0  0  0  0  0
   12.1059    1.4000    0.0000 C   0  0  0  0  0  0  0  0  0  0  0  0
   13.3164    2.1000    0.0000 C   0  0  0  0  0  0  0  0  0  0  0  0
   14.5288    1.4000    0.0000 O   0  0  0  0  0  0  0  0  0  0  0  0
   15.7413    2.1000    0.0000 C   0  0  0  0  0  0  0  0  0  0  0  0
   16.9537    1.4000    0.0000 C   0  0  0  0  0  0  0  0  0  0  0  0
   18.1662    2.1000    0.0000 C   0  0  0  0  0  0  0  0  0  0  0  0
   19.3786    1.4000    0.0000 C   0  0  0  0  0  0  0  0  0  0  0  0
   20.5910    2.1000    0.0000 C   0  0  0  0  0  0  0  0  0  0  0  0
   16.9537    0.0000    0.0000 C   0  0  0  0  0  0  0  0  0  0  0  0
  1  2  1  0  0  0  0
  2  3  1  0  0  0  0
  3  4  1  0  0  0  0
  4  5  1  0  0  0  0
  5  6  1  0  0  0  0
  1  6  1  0  0  0  0
  1  7  1  0  0  0  0
  7  8  1  0  0  0  0
  5  9  1  0  0  0  0
  8  9  1  0  0  0  0
  3 10  1  0  0  0  0
  8 10  1  0  0  0  0
  8 11  1  0  0  0  0
 11 12  1  0  0  0  0
 12 13  2  0  0  0  0
 12 14  1  0  0  0  0
 14 15  1  0  0  0  0
 15 16  1  0  0  0  0
 16 17  1  0  0  0  0
 17 18  1  0  0  0  0
 18 19  1  0  0  0  0
 19 20  1  0  0  0  0
 20 21  1  0  0  0  0
 21 22  1  0  0  0  0
 22 23  1  0  0  0  0
 23 24  1  0  0  0  0
 25 24  1  0  0  0  0
 22 26  1  0  0  0  0
M  END
> <Molecule Name>
955

> <CDD Number>
CDD-16219

> <Human_sEH_IC50_uM>
0.11

> <Mouse_sEH_IC50_uM>
0.05

$$$$

SketchEl molfile

 26 28  0  0  0  0  0  0  0  0999 V2000
    2.7836    3.0265    0.0000 C   0  0  0  0  0  0  0  0  0  0  0  0
    1.3836    3.0265    0.0000 C   0  0  0  0  0  0  0  0  0  0  0  0
    1.0130    1.6760    0.0000 C   0  0  0  0  0  0  0  0  0  0  0  0
    0.0000    0.7000    0.0000 C   0  0  0  0  0  0  0  0  0  0  0  0
    1.3836    0.7000    0.0000 C   0  0  0  0  0  0  0  0  0  0  0  0
    1.7500    2.0466    0.0000 C   0  0  0  0  0  0  0  0  0  0  0  0
    3.9941    2.3265    0.0000 C   0  0  0  0  0  0  0  0  0  0  0  0
    3.6319    0.9760    0.0000 C   0  0  0  0  0  0  0  0  0  0  0  0
    2.5941    0.0000    0.0000 C   0  0  0  0  0  0  0  0  0  0  0  0
    2.2235    0.9760    0.0000 C   0  0  0  0  0  0  0  0  0  0  0  0
    4.8424    0.2760    0.0000 N   0  0  0  0  0  0  0  0  0  0  0  0
    6.0529    0.9760    0.0000 C   0  0  0  0  0  0  0  0  0  0  0  0
    6.0529    2.3760    0.0000 O   0  0  0  0  0  0  0  0  0  0  0  0
    7.2635    0.2760    0.0000 N   0  0  0  0  0  0  0  0  0  0  0  0
    8.4743    0.9760    0.0000 C   0  0  0  0  0  0  0  0  0  0  0  0
    9.6848    0.2760    0.0000 C   0  0  0  0  0  0  0  0  0  0  0  0
   10.8954    0.9760    0.0000 C   0  0  0  0  0  0  0  0  0  0  0  0
   12.1059    0.2760    0.0000 C   0  0  0  0  0  0  0  0  0  0  0  0
   13.3164    0.9760    0.0000 C   0  0  0  0  0  0  0  0  0  0  0  0
   14.5288    0.2760    0.0000 O   0  0  0  0  0  0  0  0  0  0  0  0
   15.7413    0.9760    0.0000 C   0  0  0  0  0  0  0  0  0  0  0  0
   16.9537    0.2760    0.0000 C   0  0  0  0  0  0  0  0  0  0  0  0
   18.1662    0.9760    0.0000 C   0  0  0  0  0  0  0  0  0  0  0  0
   19.3786    0.2760    0.0000 C   0  0  0  0  0  0  0  0  0  0  0  0
   20.5910    0.9760    0.0000 C   0  0  0  0  0  0  0  0  0  0  0  0
   15.7413    2.3760    0.0000 C   0  0  0  0  0  0  0  0  0  0  0  0
  1  2  1  0  0  0  0
  2  3  1  0  0  0  0
  3  4  1  0  0  0  0
  4  5  1  0  0  0  0
  5  6  1  0  0  0  0
  1  6  1  0  0  0  0
  1  7  1  0  0  0  0
  7  8  1  0  0  0  0
  5  9  1  0  0  0  0
  8  9  1  0  0  0  0
  3 10  1  0  0  0  0
  8 10  1  0  0  0  0
  8 11  1  0  0  0  0
 11 12  1  0  0  0  0
 12 13  2  0  0  0  0
 12 14  1  0  0  0  0
 14 15  1  0  0  0  0
 15 16  1  0  0  0  0
 16 17  1  0  0  0  0
 17 18  1  0  0  0  0
 18 19  1  0  0  0  0
 19 20  1  0  0  0  0
 20 21  1  0  0  0  0
 21 22  1  0  0  0  0
 22 23  1  0  0  0  0
 23 24  1  0  0  0  0
 25 24  1  0  0  0  0
 21 26  1  0  0  0  0
M  END
> <Molecule Name>
954

> <CDD Number>
CDD-15711

> <Human_sEH_IC50_uM>
0.11

> <Mouse_sEH_IC50_uM>
0.05

$$$$

SketchEl molfile

 10  9  0  0  0  0  0  0  0  0999 V2000
    4.8497    3.6501    0.0000 O   0  0  0  0  0  0  0  0  0  0  0  0
    4.8497    2.2501    0.0000 C   0  0  0  0  0  0  0  0  0  0  0  0
    6.0622    1.5501    0.0000 O   0  0  0  0  0  0  0  0  0  0  0  0
    3.6373    1.5501    0.0000 C   0  0  0  0  0  0  0  0  0  0  0  0
    2.4249    2.2501    0.0000 C   0  0  0  0  0  0  0  0  0  0  0  0
    1.2124    1.5501    0.0000 C   0  0  0  0  0  0  0  0  0  0  0  0
    0.0000    2.2501    0.0000 C   0  0  0  0  0  0  0  0  0  0  0  0
    2.9373    0.3377    0.0000 C   0  0  0  0  0  0  0  0  0  0  0  0
    1.5850    0.7000    0.0000 C   0  0  0  0  0  0  0  0  0  0  0  0
    0.3726    0.0000    0.0000 C   0  0  0  0  0  0  0  0  0  0  0  0
  1  2  2  0  0  0  0
  2  3  1  0  0  0  0
  2  4  1  0  0  0  0
  4  5  1  0  0  0  0
  5  6  1  0  0  0  0
  6  7  1  0  0  0  0
  4  8  1  0  0  0  0
  8  9  1  0  0  0  0
  9 10  1  0  0  0  0
M  END
> <Molecule Name>
953

> <CDD Number>
CDD-717

> <Human_sEH_IC50_uM>
500.0

> <Mouse_sEH_IC50_uM>
500.0

$$$$

SketchEl molfile

 30 32  0  0  0  0  0  0  0  0999 V2000
    2.7836    3.0265    0.0000 C   0  0  0  0  0  0  0  0  0  0  0  0
    1.3836    3.0265    0.0000 C   0  0  0  0  0  0  0  0  0  0  0  0
    1.0130    1.6760    0.0000 C   0  0  0  0  0  0  0  0  0  0  0  0
    0.0000    0.7000    0.0000 C   0  0  0  0  0  0  0  0  0  0  0  0
    1.3836    0.7000    0.0000 C   0  0  0  0  0  0  0  0  0  0  0  0
    1.7500    2.0466    0.0000 C   0  0  0  0  0  0  0  0  0  0  0  0
    3.9941    2.3265    0.0000 C   0  0  0  0  0  0  0  0  0  0  0  0
    3.6319    0.9760    0.0000 C   0  0  0  0  0  0  0  0  0  0  0  0
    2.5941    0.0000    0.0000 C   0  0  0  0  0  0  0  0  0  0  0  0
    2.2235    0.9760    0.0000 C   0  0  0  0  0  0  0  0  0  0  0  0
    4.8424    0.2760    0.0000 N   0  0  0  0  0  0  0  0  0  0  0  0
    6.0529    0.9760    0.0000 C   0  0  0  0  0  0  0  0  0  0  0  0
    6.0529    2.3760    0.0000 O   0  0  0  0  0  0  0  0  0  0  0  0
    7.2635    0.2760    0.0000 N   0  0  0  0  0  0  0  0  0  0  0  0
    8.4743    0.9760    0.0000 C   0  0  0  0  0  0  0  0  0  0  0  0
    9.6848    0.2760    0.0000 C   0  0  0  0  0  0  0  0  0  0  0  0
   10.8954    0.9760    0.0000 C   0  0  0  0  0  0  0  0  0  0  0  0
   12.1059    0.2760    0.0000 C   0  0  0  0  0  0  0  0  0  0  0  0
   13.3164    0.9760    0.0000 C   0  0  0  0  0  0  0  0  0  0  0  0
   14.5288    0.2760    0.0000 O   0  0  0  0  0  0  0  0  0  0  0  0
   15.7413    0.9760    0.0000 C   0  0  0  0  0  0  0  0  0  0  0  0
   16.9537    0.2760    0.0000 C   0  0  0  0  0  0  0  0  0  0  0  0
   18.1662    0.9760    0.0000 O   0  0  0  0  0  0  0  0  0  0  0  0
   19.3786    0.2760    0.0000 C   0  0  0  0  0  0  0  0  0  0  0  0
   20.5910    0.9760    0.0000 C   0  0  0  0  0  0  0  0  0  0  0  0
   21.8035    0.2760    0.0000 O   0  0  0  0  0  0  0  0  0  0  0  0
   23.0159    0.9760    0.0000 C   0  0  0  0  0  0  0  0  0  0  0  0
   24.2283    0.2760    0.0000 C   0  0  0  0  0  0  0  0  0  0  0  0
   25.4408    0.9760    0.0000 O   0  0  0  0  0  0  0  0  0  0  0  0
   26.6532    0.2760    0.0000 C   0  0  0  0  0  0  0  0  0  0  0  0
  1  2  1  0  0  0  0
  2  3  1  0  0  0  0
  3  4  1  0  0  0  0
  4  5  1  0  0  0  0
  5  6  1  0  0  0  0
  1  6  1  0  0  0  0
  1  7  1  0  0  0  0
  7  8  1  0  0  0  0
  5  9  1  0  0  0  0
  8  9  1  0  0  0  0
  3 10  1  0  0  0  0
  8 10  1  0  0  0  0
  8 11  1  0  0  0  0
 11 12  1  0  0  0  0
 12 13  2  0  0  0  0
 12 14  1  0  0  0  0
 14 15  1  0  0  0  0
 15 16  1  0  0  0  0
 16 17  1  0  0  0  0
 17 18  1  0  0  0  0
 18 19  1  0  0  0  0
 19 20  1  0  0  0  0
 20 21  1  0  0  0  0
 21 22  1  0  0  0  0
 22 23  1  0  0  0  0
 23 24  1  0  0  0  0
 25 24  1  0  0  0  0
 26 25  1  0  0  0  0
 27 26  1  0  0  0  0
 28 27  1  0  0  0  0
 28 29  1  0  0  0  0
 29 30  1  0  0  0  0
M  END
> <Molecule Name>
952

> <CDD Number>
CDD-16218

> <Human_sEH_IC50_uM>
0.1

> <Mouse_sEH_IC50_uM>
0.05

$$$$

SketchEl molfile

 33 36  0  0  0  0  0  0  0  0999 V2000
    2.7836    4.8505    0.0000 C   0  0  0  0  0  0  0  0  0  0  0  0
    1.3836    4.8505    0.0000 C   0  0  0  0  0  0  0  0  0  0  0  0
    1.0130    3.5000    0.0000 C   0  0  0  0  0  0  0  0  0  0  0  0
    0.0000    2.5240    0.0000 C   0  0  0  0  0  0  0  0  0  0  0  0
    1.3836    2.5240    0.0000 C   0  0  0  0  0  0  0  0  0  0  0  0
    1.7500    3.8706    0.0000 C   0  0  0  0  0  0  0  0  0  0  0  0
    3.9941    4.1505    0.0000 C   0  0  0  0  0  0  0  0  0  0  0  0
    3.6319    2.8000    0.0000 C   0  0  0  0  0  0  0  0  0  0  0  0
    2.5941    1.8240    0.0000 C   0  0  0  0  0  0  0  0  0  0  0  0
    2.2235    2.8000    0.0000 C   0  0  0  0  0  0  0  0  0  0  0  0
    4.8424    2.1000    0.0000 N   0  0  0  0  0  0  0  0  0  0  0  0
    6.0529    2.8000    0.0000 C   0  0  0  0  0  0  0  0  0  0  0  0
    6.0529    4.2000    0.0000 O   0  0  0  0  0  0  0  0  0  0  0  0
    7.2635    2.1000    0.0000 N   0  0  0  0  0  0  0  0  0  0  0  0
    8.4743    2.8000    0.0000 C   0  0  0  0  0  0  0  0  0  0  0  0
    9.6848    2.1000    0.0000 C   0  0  0  0  0  0  0  0  0  0  0  0
   10.8954    2.8000    0.0000 C   0  0  0  0  0  0  0  0  0  0  0  0
   12.1059    2.1000    0.0000 C   0  0  0  0  0  0  0  0  0  0  0  0
   13.3164    2.8000    0.0000 C   0  0  0  0  0  0  0  0  0  0  0  0
   14.5288    2.1000    0.0000 O   0  0  0  0  0  0  0  0  0  0  0  0
   15.7413    2.8000    0.0000 C   0  0  0  0  0  0  0  0  0  0  0  0
   16.9537    2.1000    0.0000 C   0  0  0  0  0  0  0  0  0  0  0  0
   18.1662    2.8000    0.0000 O   0  0  0  0  0  0  0  0  0  0  0  0
   19.3786    2.1000    0.0000 C   0  0  0  0  0  0  0  0  0  0  0  0
   20.5910    2.8000    0.0000 C   0  0  0  0  0  0  0  0  0  0  0  0
   21.8035    2.1000    0.0000 O   0  0  0  0  0  0  0  0  0  0  0  0
   23.0159    2.8000    0.0000 C   0  0  0  0  0  0  0  0  0  0  0  0
   24.2283    2.1000    0.0000 C   0  0  0  0  0  0  0  0  0  0  0  0
   24.2283    0.7000    0.0000 C   0  0  0  0  0  0  0  0  0  0  0  0
   25.4408    0.0000    0.0000 C   0  0  0  0  0  0  0  0  0  0  0  0
   26.6532    0.7000    0.0000 C   0  0  0  0  0  0  0  0  0  0  0  0
   26.6532    2.1000    0.0000 C   0  0  0  0  0  0  0  0  0  0  0  0
   25.4408    2.8000    0.0000 C   0  0  0  0  0  0  0  0  0  0  0  0
  1  2  1  0  0  0  0
  2  3  1  0  0  0  0
  3  4  1  0  0  0  0
  4  5  1  0  0  0  0
  5  6  1  0  0  0  0
  1  6  1  0  0  0  0
  1  7  1  0  0  0  0
  7  8  1  0  0  0  0
  5  9  1  0  0  0  0
  8  9  1  0  0  0  0
  3 10  1  0  0  0  0
  8 10  1  0  0  0  0
  8 11  1  0  0  0  0
 11 12  1  0  0  0  0
 12 13  2  0  0  0  0
 12 14  1  0  0  0  0
 14 15  1  0  0  0  0
 15 16  1  0  0  0  0
 16 17  1  0  0  0  0
 17 18  1  0  0  0  0
 18 19  1  0  0  0  0
 19 20  1  0  0  0  0
 20 21  1  0  0  0  0
 21 22  1  0  0  0  0
 22 23  1  0  0  0  0
 23 24  1  0  0  0  0
 25 24  1  0  0  0  0
 26 25  1  0  0  0  0
 27 26  1  0  0  0  0
 28 27  1  0  0  0  0
 28 29  2  0  0  0  0
 29 30  1  0  0  0  0
 30 31  2  0  0  0  0
 31 32  1  0  0  0  0
 32 33  2  0  0  0  0
 33 28  1  0  0  0  0
M  END
> <Molecule Name>
951

> <CDD Number>
CDD-16217

> <Human_sEH_IC50_uM>
0.1

> <Mouse_sEH_IC50_uM>
0.05

$$$$

SketchEl molfile

 33 36  0  0  0  0  0  0  0  0999 V2000
    2.7836    4.8505    0.0000 C   0  0  0  0  0  0  0  0  0  0  0  0
    1.3836    4.8505    0.0000 C   0  0  0  0  0  0  0  0  0  0  0  0
    1.0130    3.5000    0.0000 C   0  0  0  0  0  0  0  0  0  0  0  0
    0.0000    2.5240    0.0000 C   0  0  0  0  0  0  0  0  0  0  0  0
    1.3836    2.5240    0.0000 C   0  0  0  0  0  0  0  0  0  0  0  0
    1.7500    3.8706    0.0000 C   0  0  0  0  0  0  0  0  0  0  0  0
    3.9941    4.1505    0.0000 C   0  0  0  0  0  0  0  0  0  0  0  0
    3.6319    2.8000    0.0000 C   0  0  0  0  0  0  0  0  0  0  0  0
    2.5941    1.8240    0.0000 C   0  0  0  0  0  0  0  0  0  0  0  0
    2.2235    2.8000    0.0000 C   0  0  0  0  0  0  0  0  0  0  0  0
    4.8424    2.1000    0.0000 N   0  0  0  0  0  0  0  0  0  0  0  0
    6.0529    2.8000    0.0000 C   0  0  0  0  0  0  0  0  0  0  0  0
    6.0529    4.2000    0.0000 O   0  0  0  0  0  0  0  0  0  0  0  0
    7.2635    2.1000    0.0000 N   0  0  0  0  0  0  0  0  0  0  0  0
    8.4743    2.8000    0.0000 C   0  0  0  0  0  0  0  0  0  0  0  0
    9.6848    2.1000    0.0000 C   0  0  0  0  0  0  0  0  0  0  0  0
   10.8954    2.8000    0.0000 C   0  0  0  0  0  0  0  0  0  0  0  0
   12.1059    2.1000    0.0000 C   0  0  0  0  0  0  0  0  0  0  0  0
   13.3164    2.8000    0.0000 C   0  0  0  0  0  0  0  0  0  0  0  0
   14.5288    2.1000    0.0000 O   0  0  0  0  0  0  0  0  0  0  0  0
   15.7413    2.8000    0.0000 C   0  0  0  0  0  0  0  0  0  0  0  0
   16.9537    2.1000    0.0000 C   0  0  0  0  0  0  0  0  0  0  0  0
   18.1662    2.8000    0.0000 O   0  0  0  0  0  0  0  0  0  0  0  0
   19.3786    2.1000    0.0000 C   0  0  0  0  0  0  0  0  0  0  0  0
   20.5910    2.8000    0.0000 C   0  0  0  0  0  0  0  0  0  0  0  0
   21.8035    2.1000    0.0000 O   0  0  0  0  0  0  0  0  0  0  0  0
   23.0159    2.8000    0.0000 C   0  0  0  0  0  0  0  0  0  0  0  0
   24.2283    2.1000    0.0000 C   0  0  0  0  0  0  0  0  0  0  0  0
   24.2283    0.7000    0.0000 C   0  0  0  0  0  0  0  0  0  0  0  0
   25.4408    0.0000    0.0000 C   0  0  0  0  0  0  0  0  0  0  0  0
   26.6532    0.7000    0.0000 C   0  0  0  0  0  0  0  0  0  0  0  0
   26.6532    2.1000    0.0000 C   0  0  0  0  0  0  0  0  0  0  0  0
   25.4408    2.8000    0.0000 C   0  0  0  0  0  0  0  0  0  0  0  0
  1  2  1  0  0  0  0
  2  3  1  0  0  0  0
  3  4  1  0  0  0  0
  4  5  1  0  0  0  0
  5  6  1  0  0  0  0
  1  6  1  0  0  0  0
  1  7  1  0  0  0  0
  7  8  1  0  0  0  0
  5  9  1  0  0  0  0
  8  9  1  0  0  0  0
  3 10  1  0  0  0  0
  8 10  1  0  0  0  0
  8 11  1  0  0  0  0
 11 12  1  0  0  0  0
 12 13  2  0  0  0  0
 12 14  1  0  0  0  0
 14 15  1  0  0  0  0
 15 16  1  0  0  0  0
 16 17  1  0  0  0  0
 17 18  1  0  0  0  0
 18 19  1  0  0  0  0
 19 20  1  0  0  0  0
 20 21  1  0  0  0  0
 21 22  1  0  0  0  0
 22 23  1  0  0  0  0
 23 24  1  0  0  0  0
 25 24  1  0  0  0  0
 26 25  1  0  0  0  0
 27 26  1  0  0  0  0
 28 27  1  0  0  0  0
 28 29  2  0  0  0  0
 29 30  1  0  0  0  0
 30 31  2  0  0  0  0
 31 32  1  0  0  0  0
 32 33  2  0  0  0  0
 33 28  1  0  0  0  0
M  END
> <Molecule Name>
951

> <CDD Number>
CDD-16217

> <Human_sEH_IC50_uM>
0.11

> <Mouse_sEH_IC50_uM>
0.05

$$$$

SketchEl molfile

 28 30  0  0  0  0  0  0  0  0999 V2000
    2.7836    3.0265    0.0000 C   0  0  0  0  0  0  0  0  0  0  0  0
    1.3836    3.0265    0.0000 C   0  0  0  0  0  0  0  0  0  0  0  0
    1.0130    1.6760    0.0000 C   0  0  0  0  0  0  0  0  0  0  0  0
    0.0000    0.7000    0.0000 C   0  0  0  0  0  0  0  0  0  0  0  0
    1.3836    0.7000    0.0000 C   0  0  0  0  0  0  0  0  0  0  0  0
    1.7500    2.0466    0.0000 C   0  0  0  0  0  0  0  0  0  0  0  0
    3.9941    2.3265    0.0000 C   0  0  0  0  0  0  0  0  0  0  0  0
    3.6319    0.9760    0.0000 C   0  0  0  0  0  0  0  0  0  0  0  0
    2.5941    0.0000    0.0000 C   0  0  0  0  0  0  0  0  0  0  0  0
    2.2235    0.9760    0.0000 C   0  0  0  0  0  0  0  0  0  0  0  0
    4.8424    0.2760    0.0000 N   0  0  0  0  0  0  0  0  0  0  0  0
    6.0529    0.9760    0.0000 C   0  0  0  0  0  0  0  0  0  0  0  0
    6.0529    2.3760    0.0000 O   0  0  0  0  0  0  0  0  0  0  0  0
    7.2635    0.2760    0.0000 N   0  0  0  0  0  0  0  0  0  0  0  0
    8.4743    0.9760    0.0000 C   0  0  0  0  0  0  0  0  0  0  0  0
    9.6848    0.2760    0.0000 C   0  0  0  0  0  0  0  0  0  0  0  0
   10.8954    0.9760    0.0000 C   0  0  0  0  0  0  0  0  0  0  0  0
   12.1059    0.2760    0.0000 C   0  0  0  0  0  0  0  0  0  0  0  0
   13.3164    0.9760    0.0000 C   0  0  0  0  0  0  0  0  0  0  0  0
   14.5288    0.2760    0.0000 O   0  0  0  0  0  0  0  0  0  0  0  0
   15.7413    0.9760    0.0000 C   0  0  0  0  0  0  0  0  0  0  0  0
   16.9537    0.2760    0.0000 C   0  0  0  0  0  0  0  0  0  0  0  0
   18.1662    0.9760    0.0000 O   0  0  0  0  0  0  0  0  0  0  0  0
   19.3786    0.2760    0.0000 C   0  0  0  0  0  0  0  0  0  0  0  0
   20.5910    0.9760    0.0000 C   0  0  0  0  0  0  0  0  0  0  0  0
   21.8035    0.2760    0.0000 O   0  0  0  0  0  0  0  0  0  0  0  0
   23.0159    0.9760    0.0000 C   0  0  0  0  0  0  0  0  0  0  0  0
   24.2283    0.2760    0.0000 C   0  0  0  0  0  0  0  0  0  0  0  0
  1  2  1  0  0  0  0
  2  3  1  0  0  0  0
  3  4  1  0  0  0  0
  4  5  1  0  0  0  0
  5  6  1  0  0  0  0
  1  6  1  0  0  0  0
  1  7  1  0  0  0  0
  7  8  1  0  0  0  0
  5  9  1  0  0  0  0
  8  9  1  0  0  0  0
  3 10  1  0  0  0  0
  8 10  1  0  0  0  0
  8 11  1  0  0  0  0
 11 12  1  0  0  0  0
 12 13  2  0  0  0  0
 12 14  1  0  0  0  0
 14 15  1  0  0  0  0
 15 16  1  0  0  0  0
 16 17  1  0  0  0  0
 17 18  1  0  0  0  0
 18 19  1  0  0  0  0
 19 20  1  0  0  0  0
 20 21  1  0  0  0  0
 21 22  1  0  0  0  0
 22 23  1  0  0  0  0
 23 24  1  0  0  0  0
 25 24  1  0  0  0  0
 26 25  1  0  0  0  0
 27 26  1  0  0  0  0
 28 27  1  0  0  0  0
M  END
> <Molecule Name>
950

> <CDD Number>
CDD-16216

> <Human_sEH_IC50_uM>
0.1

> <Mouse_sEH_IC50_uM>
0.05

$$$$

SketchEl molfile

 38 42  0  0  0  0  0  0  0  0999 V2000
    2.7836    6.9505    0.0000 C   0  0  0  0  0  0  0  0  0  0  0  0
    1.3836    6.9505    0.0000 C   0  0  0  0  0  0  0  0  0  0  0  0
    1.0130    5.6000    0.0000 C   0  0  0  0  0  0  0  0  0  0  0  0
    0.0000    4.6240    0.0000 C   0  0  0  0  0  0  0  0  0  0  0  0
    1.3836    4.6240    0.0000 C   0  0  0  0  0  0  0  0  0  0  0  0
    1.7500    5.9706    0.0000 C   0  0  0  0  0  0  0  0  0  0  0  0
    3.9941    6.2505    0.0000 C   0  0  0  0  0  0  0  0  0  0  0  0
    3.6319    4.9000    0.0000 C   0  0  0  0  0  0  0  0  0  0  0  0
    2.5941    3.9240    0.0000 C   0  0  0  0  0  0  0  0  0  0  0  0
    2.2235    4.9000    0.0000 C   0  0  0  0  0  0  0  0  0  0  0  0
    4.8424    4.2000    0.0000 N   0  0  0  0  0  0  0  0  0  0  0  0
    6.0529    4.9000    0.0000 C   0  0  0  0  0  0  0  0  0  0  0  0
    6.0529    6.3000    0.0000 O   0  0  0  0  0  0  0  0  0  0  0  0
    7.2635    4.2000    0.0000 N   0  0  0  0  0  0  0  0  0  0  0  0
    8.4743    4.9000    0.0000 C   0  0  0  0  0  0  0  0  0  0  0  0
    9.6848    4.2000    0.0000 C   0  0  0  0  0  0  0  0  0  0  0  0
   10.8954    4.9000    0.0000 C   0  0  0  0  0  0  0  0  0  0  0  0
   12.1059    4.2000    0.0000 C   0  0  0  0  0  0  0  0  0  0  0  0
   13.3164    4.9000    0.0000 O   0  0  0  0  0  0  0  0  0  0  0  0
   14.5288    4.2000    0.0000 C   0  0  0  0  0  0  0  0  0  0  0  0
   15.7413    4.9000    0.0000 C   0  0  0  0  0  0  0  0  0  0  0  0
   12.1059    2.8000    0.0000 O   0  0  0  0  0  0  0  0  0  0  0  0
   14.5288    2.8000    0.0000 C   0  0  0  0  0  0  0  0  0  0  0  0
   13.3164    2.1000    0.0000 C   0  0  0  0  0  0  0  0  0  0  0  0
   13.3164    0.7000    0.0000 C   0  0  0  0  0  0  0  0  0  0  0  0
   14.5288    0.0000    0.0000 C   0  0  0  0  0  0  0  0  0  0  0  0
   15.7413    0.7000    0.0000 C   0  0  0  0  0  0  0  0  0  0  0  0
   15.7413    2.1000    0.0000 C   0  0  0  0  0  0  0  0  0  0  0  0
   16.9537    4.2000    0.0000 C   0  0  0  0  0  0  0  0  0  0  0  0
   18.1661    4.9000    0.0000 C   0  0  0  0  0  0  0  0  0  0  0  0
   18.1661    6.3000    0.0000 C   0  0  0  0  0  0  0  0  0  0  0  0
   16.9537    7.0000    0.0000 C   0  0  0  0  0  0  0  0  0  0  0  0
   15.7413    6.3000    0.0000 C   0  0  0  0  0  0  0  0  0  0  0  0
   19.3786    7.0000    0.0000 C   0  0  0  0  0  0  0  0  0  0  0  0
   20.5910    6.3000    0.0000 O   0  0  0  0  0  0  0  0  0  0  0  0
   19.3786    8.4000    0.0000 O   0  0  0  0  0  0  0  0  0  0  0  0
   21.8035    7.0000    0.0000 C   0  0  0  0  0  0  0  0  0  0  0  0
   23.0159    6.3000    0.0000 C   0  0  0  0  0  0  0  0  0  0  0  0
  1  2  1  0  0  0  0
  2  3  1  0  0  0  0
  3  4  1  0  0  0  0
  4  5  1  0  0  0  0
  5  6  1  0  0  0  0
  1  6  1  0  0  0  0
  1  7  1  0  0  0  0
  7  8  1  0  0  0  0
  5  9  1  0  0  0  0
  8  9  1  0  0  0  0
  3 10  1  0  0  0  0
  8 10  1  0  0  0  0
  8 11  1  0  0  0  0
 11 12  1  0  0  0  0
 12 13  2  0  0  0  0
 12 14  1  0  0  0  0
 14 15  1  0  0  0  0
 15 16  1  0  0  0  0
 16 17  1  0  0  0  0
 17 18  1  0  0  0  0
 18 19  1  0  0  0  0
 19 20  1  0  0  0  0
 20 21  1  0  0  0  0
 18 22  2  0  0  0  0
 20 23  1  0  0  0  0
 23 24  2  0  0  0  0
 24 25  1  0  0  0  0
 25 26  2  0  0  0  0
 26 27  1  0  0  0  0
 27 28  2  0  0  0  0
 28 23  1  0  0  0  0
 21 29  2  0  0  0  0
 29 30  1  0  0  0  0
 30 31  2  0  0  0  0
 31 32  1  0  0  0  0
 32 33  2  0  0  0  0
 33 21  1  0  0  0  0
 31 34  1  0  0  0  0
 34 35  1  0  0  0  0
 34 36  2  0  0  0  0
 35 37  1  0  0  0  0
 37 38  1  0  0  0  0
M  END
> <Molecule Name>
949

> <CDD Number>
CDD-16215

> <Human_sEH_IC50_uM>
0.1

> <Mouse_sEH_IC50_uM>
0.05

$$$$

SketchEl molfile

 33 36  0  0  0  0  0  0  0  0999 V2000
    2.7836    4.1505    0.0000 C   0  0  0  0  0  0  0  0  0  0  0  0
    1.3836    4.1505    0.0000 C   0  0  0  0  0  0  0  0  0  0  0  0
    1.0130    2.8000    0.0000 C   0  0  0  0  0  0  0  0  0  0  0  0
    0.0000    1.8240    0.0000 C   0  0  0  0  0  0  0  0  0  0  0  0
    1.3836    1.8240    0.0000 C   0  0  0  0  0  0  0  0  0  0  0  0
    1.7500    3.1706    0.0000 C   0  0  0  0  0  0  0  0  0  0  0  0
    3.9941    3.4505    0.0000 C   0  0  0  0  0  0  0  0  0  0  0  0
    3.6319    2.1000    0.0000 C   0  0  0  0  0  0  0  0  0  0  0  0
    2.5941    1.1240    0.0000 C   0  0  0  0  0  0  0  0  0  0  0  0
    2.2235    2.1000    0.0000 C   0  0  0  0  0  0  0  0  0  0  0  0
    4.8424    1.4000    0.0000 N   0  0  0  0  0  0  0  0  0  0  0  0
    6.0529    2.1000    0.0000 C   0  0  0  0  0  0  0  0  0  0  0  0
    6.0529    3.5000    0.0000 O   0  0  0  0  0  0  0  0  0  0  0  0
    7.2635    1.4000    0.0000 N   0  0  0  0  0  0  0  0  0  0  0  0
    8.4743    2.1000    0.0000 C   0  0  0  0  0  0  0  0  0  0  0  0
    9.6848    1.4000    0.0000 C   0  0  0  0  0  0  0  0  0  0  0  0
   10.8954    2.1000    0.0000 C   0  0  0  0  0  0  0  0  0  0  0  0
   12.1059    1.4000    0.0000 C   0  0  0  0  0  0  0  0  0  0  0  0
   13.3164    2.1000    0.0000 O   0  0  0  0  0  0  0  0  0  0  0  0
   14.5288    1.4000    0.0000 C   0  0  0  0  0  0  0  0  0  0  0  0
   15.7413    2.1000    0.0000 C   0  0  0  0  0  0  0  0  0  0  0  0
   12.1059    0.0000    0.0000 O   0  0  0  0  0  0  0  0  0  0  0  0
   14.5288    0.0000    0.0000 C   0  0  0  0  0  0  0  0  0  0  0  0
   16.9537    1.4000    0.0000 C   0  0  0  0  0  0  0  0  0  0  0  0
   18.1661    2.1000    0.0000 C   0  0  0  0  0  0  0  0  0  0  0  0
   18.1661    3.5000    0.0000 C   0  0  0  0  0  0  0  0  0  0  0  0
   16.9537    4.2000    0.0000 C   0  0  0  0  0  0  0  0  0  0  0  0
   15.7413    3.5000    0.0000 C   0  0  0  0  0  0  0  0  0  0  0  0
   19.3786    4.2000    0.0000 C   0  0  0  0  0  0  0  0  0  0  0  0
   20.5910    3.5000    0.0000 O   0  0  0  0  0  0  0  0  0  0  0  0
   19.3786    5.6000    0.0000 O   0  0  0  0  0  0  0  0  0  0  0  0
   21.8035    4.2000    0.0000 C   0  0  0  0  0  0  0  0  0  0  0  0
   23.0159    3.5000    0.0000 C   0  0  0  0  0  0  0  0  0  0  0  0
  1  2  1  0  0  0  0
  2  3  1  0  0  0  0
  3  4  1  0  0  0  0
  4  5  1  0  0  0  0
  5  6  1  0  0  0  0
  1  6  1  0  0  0  0
  1  7  1  0  0  0  0
  7  8  1  0  0  0  0
  5  9  1  0  0  0  0
  8  9  1  0  0  0  0
  3 10  1  0  0  0  0
  8 10  1  0  0  0  0
  8 11  1  0  0  0  0
 11 12  1  0  0  0  0
 12 13  2  0  0  0  0
 12 14  1  0  0  0  0
 14 15  1  0  0  0  0
 15 16  1  0  0  0  0
 16 17  1  0  0  0  0
 17 18  1  0  0  0  0
 18 19  1  0  0  0  0
 19 20  1  0  0  0  0
 20 21  1  0  0  0  0
 18 22  2  0  0  0  0
 20 23  1  0  0  0  0
 21 24  2  0  0  0  0
 24 25  1  0  0  0  0
 25 26  2  0  0  0  0
 26 27  1  0  0  0  0
 27 28  2  0  0  0  0
 28 21  1  0  0  0  0
 26 29  1  0  0  0  0
 29 30  1  0  0  0  0
 29 31  2  0  0  0  0
 30 32  1  0  0  0  0
 32 33  1  0  0  0  0
M  END
> <Molecule Name>
948

> <CDD Number>
CDD-16214

> <Human_sEH_IC50_uM>
0.12

> <Mouse_sEH_IC50_uM>
0.08

$$$$

SketchEl molfile

 34 37  0  0  0  0  0  0  0  0999 V2000
    2.7836    5.1404    0.0000 C   0  0  0  0  0  0  0  0  0  0  0  0
    1.3836    5.1404    0.0000 C   0  0  0  0  0  0  0  0  0  0  0  0
    1.0130    3.7900    0.0000 C   0  0  0  0  0  0  0  0  0  0  0  0
    0.0000    2.8139    0.0000 C   0  0  0  0  0  0  0  0  0  0  0  0
    1.3836    2.8139    0.0000 C   0  0  0  0  0  0  0  0  0  0  0  0
    1.7500    4.1605    0.0000 C   0  0  0  0  0  0  0  0  0  0  0  0
    3.9941    4.4404    0.0000 C   0  0  0  0  0  0  0  0  0  0  0  0
    3.6319    3.0900    0.0000 C   0  0  0  0  0  0  0  0  0  0  0  0
    2.5941    2.1139    0.0000 C   0  0  0  0  0  0  0  0  0  0  0  0
    2.2235    3.0900    0.0000 C   0  0  0  0  0  0  0  0  0  0  0  0
    4.8424    2.3899    0.0000 N   0  0  0  0  0  0  0  0  0  0  0  0
    6.0529    3.0900    0.0000 C   0  0  0  0  0  0  0  0  0  0  0  0
    6.0529    4.4900    0.0000 O   0  0  0  0  0  0  0  0  0  0  0  0
    7.2635    2.3899    0.0000 N   0  0  0  0  0  0  0  0  0  0  0  0
    8.4743    3.0900    0.0000 C   0  0  0  0  0  0  0  0  0  0  0  0
    9.6848    2.3899    0.0000 C   0  0  0  0  0  0  0  0  0  0  0  0
   10.8954    3.0900    0.0000 C   0  0  0  0  0  0  0  0  0  0  0  0
   12.1059    2.3899    0.0000 C   0  0  0  0  0  0  0  0  0  0  0  0
   13.3164    3.0900    0.0000 O   0  0  0  0  0  0  0  0  0  0  0  0
   14.5288    2.3899    0.0000 C   0  0  0  0  0  0  0  0  0  0  0  0
   15.7413    3.0900    0.0000 C   0  0  0  0  0  0  0  0  0  0  0  0
   12.1059    0.9899    0.0000 O   0  0  0  0  0  0  0  0  0  0  0  0
   14.5288    0.9899    0.0000 C   0  0  0  0  0  0  0  0  0  0  0  0
   15.5188    0.0000    0.0000 N   0  0  0  0  0  0  0  0  0  0  0  0
   16.9537    2.3900    0.0000 C   0  0  0  0  0  0  0  0  0  0  0  0
   18.1662    3.0900    0.0000 C   0  0  0  0  0  0  0  0  0  0  0  0
   18.1662    4.4900    0.0000 C   0  0  0  0  0  0  0  0  0  0  0  0
   16.9537    5.1900    0.0000 C   0  0  0  0  0  0  0  0  0  0  0  0
   15.7413    4.4900    0.0000 C   0  0  0  0  0  0  0  0  0  0  0  0
   19.3786    5.1900    0.0000 C   0  0  0  0  0  0  0  0  0  0  0  0
   20.5910    4.4900    0.0000 O   0  0  0  0  0  0  0  0  0  0  0  0
   19.3786    6.5899    0.0000 O   0  0  0  0  0  0  0  0  0  0  0  0
   21.8035    5.1900    0.0000 C   0  0  0  0  0  0  0  0  0  0  0  0
   23.0159    4.4900    0.0000 C   0  0  0  0  0  0  0  0  0  0  0  0
  1  2  1  0  0  0  0
  2  3  1  0  0  0  0
  3  4  1  0  0  0  0
  4  5  1  0  0  0  0
  5  6  1  0  0  0  0
  1  6  1  0  0  0  0
  1  7  1  0  0  0  0
  7  8  1  0  0  0  0
  5  9  1  0  0  0  0
  8  9  1  0  0  0  0
  3 10  1  0  0  0  0
  8 10  1  0  0  0  0
  8 11  1  0  0  0  0
 11 12  1  0  0  0  0
 12 13  2  0  0  0  0
 12 14  1  0  0  0  0
 14 15  1  0  0  0  0
 15 16  1  0  0  0  0
 16 17  1  0  0  0  0
 17 18  1  0  0  0  0
 18 19  1  0  0  0  0
 19 20  1  0  0  0  0
 20 21  1  0  0  0  0
 18 22  2  0  0  0  0
 20 23  1  0  0  0  0
 23 24  3  0  0  0  0
 21 25  2  0  0  0  0
 25 26  1  0  0  0  0
 26 27  2  0  0  0  0
 27 28  1  0  0  0  0
 28 29  2  0  0  0  0
 29 21  1  0  0  0  0
 27 30  1  0  0  0  0
 30 31  1  0  0  0  0
 30 32  2  0  0  0  0
 31 33  1  0  0  0  0
 33 34  1  0  0  0  0
M  END
> <Molecule Name>
947

> <CDD Number>
CDD-16213

> <Human_sEH_IC50_uM>
0.11

> <Mouse_sEH_IC50_uM>
0.07

$$$$

SketchEl molfile

 29 32  0  0  0  0  0  0  0  0999 V2000
    2.7836    4.8505    0.0000 C   0  0  0  0  0  0  0  0  0  0  0  0
    1.3836    4.8505    0.0000 C   0  0  0  0  0  0  0  0  0  0  0  0
    1.0130    3.5000    0.0000 C   0  0  0  0  0  0  0  0  0  0  0  0
    0.0000    2.5240    0.0000 C   0  0  0  0  0  0  0  0  0  0  0  0
    1.3836    2.5240    0.0000 C   0  0  0  0  0  0  0  0  0  0  0  0
    1.7500    3.8706    0.0000 C   0  0  0  0  0  0  0  0  0  0  0  0
    3.9941    4.1505    0.0000 C   0  0  0  0  0  0  0  0  0  0  0  0
    3.6319    2.8000    0.0000 C   0  0  0  0  0  0  0  0  0  0  0  0
    2.5941    1.8240    0.0000 C   0  0  0  0  0  0  0  0  0  0  0  0
    2.2235    2.8000    0.0000 C   0  0  0  0  0  0  0  0  0  0  0  0
    4.8424    2.1000    0.0000 N   0  0  0  0  0  0  0  0  0  0  0  0
    6.0529    2.8000    0.0000 C   0  0  0  0  0  0  0  0  0  0  0  0
    6.0529    4.2000    0.0000 O   0  0  0  0  0  0  0  0  0  0  0  0
    7.2635    2.1000    0.0000 N   0  0  0  0  0  0  0  0  0  0  0  0
    8.4743    2.8000    0.0000 C   0  0  0  0  0  0  0  0  0  0  0  0
    9.6848    2.1000    0.0000 C   0  0  0  0  0  0  0  0  0  0  0  0
   10.8954    2.8000    0.0000 C   0  0  0  0  0  0  0  0  0  0  0  0
   12.1059    2.1000    0.0000 C   0  0  0  0  0  0  0  0  0  0  0  0
   13.3164    2.8000    0.0000 O   0  0  0  0  0  0  0  0  0  0  0  0
   14.5288    2.1000    0.0000 C   0  0  0  0  0  0  0  0  0  0  0  0
   15.7413    2.8000    0.0000 C   0  0  0  0  0  0  0  0  0  0  0  0
   12.1059    0.7000    0.0000 O   0  0  0  0  0  0  0  0  0  0  0  0
   16.9537    2.1000    0.0000 C   0  0  0  0  0  0  0  0  0  0  0  0
   18.1662    2.8000    0.0000 C   0  0  0  0  0  0  0  0  0  0  0  0
   18.1662    4.2000    0.0000 C   0  0  0  0  0  0  0  0  0  0  0  0
   16.9537    4.9000    0.0000 C   0  0  0  0  0  0  0  0  0  0  0  0
   15.7413    4.2000    0.0000 C   0  0  0  0  0  0  0  0  0  0  0  0
   14.5288    0.7000    0.0000 C   0  0  0  0  0  0  0  0  0  0  0  0
   15.7413    0.0000    0.0000 N   0  0  0  0  0  0  0  0  0  0  0  0
  1  2  1  0  0  0  0
  2  3  1  0  0  0  0
  3  4  1  0  0  0  0
  4  5  1  0  0  0  0
  5  6  1  0  0  0  0
  1  6  1  0  0  0  0
  1  7  1  0  0  0  0
  7  8  1  0  0  0  0
  5  9  1  0  0  0  0
  8  9  1  0  0  0  0
  3 10  1  0  0  0  0
  8 10  1  0  0  0  0
  8 11  1  0  0  0  0
 11 12  1  0  0  0  0
 12 13  2  0  0  0  0
 12 14  1  0  0  0  0
 14 15  1  0  0  0  0
 15 16  1  0  0  0  0
 16 17  1  0  0  0  0
 17 18  1  0  0  0  0
 18 19  1  0  0  0  0
 19 20  1  0  0  0  0
 20 21  1  0  0  0  0
 18 22  2  0  0  0  0
 21 23  2  0  0  0  0
 23 24  1  0  0  0  0
 24 25  2  0  0  0  0
 25 26  1  0  0  0  0
 26 27  2  0  0  0  0
 27 21  1  0  0  0  0
 20 28  1  0  0  0  0
 28 29  3  0  0  0  0
M  END
> <Molecule Name>
946

> <CDD Number>
CDD-16212

> <Human_sEH_IC50_uM>
0.15

> <Mouse_sEH_IC50_uM>
0.05

$$$$

SketchEl molfile

 27 30  0  0  0  0  0  0  0  0999 V2000
    2.7836    4.1505    0.0000 C   0  0  0  0  0  0  0  0  0  0  0  0
    1.3836    4.1505    0.0000 C   0  0  0  0  0  0  0  0  0  0  0  0
    1.0130    2.8000    0.0000 C   0  0  0  0  0  0  0  0  0  0  0  0
    0.0000    1.8240    0.0000 C   0  0  0  0  0  0  0  0  0  0  0  0
    1.3836    1.8240    0.0000 C   0  0  0  0  0  0  0  0  0  0  0  0
    1.7500    3.1706    0.0000 C   0  0  0  0  0  0  0  0  0  0  0  0
    3.9941    3.4505    0.0000 C   0  0  0  0  0  0  0  0  0  0  0  0
    3.6319    2.1000    0.0000 C   0  0  0  0  0  0  0  0  0  0  0  0
    2.5941    1.1240    0.0000 C   0  0  0  0  0  0  0  0  0  0  0  0
    2.2235    2.1000    0.0000 C   0  0  0  0  0  0  0  0  0  0  0  0
    4.8424    1.4000    0.0000 N   0  0  0  0  0  0  0  0  0  0  0  0
    6.0529    2.1000    0.0000 C   0  0  0  0  0  0  0  0  0  0  0  0
    6.0529    3.5000    0.0000 O   0  0  0  0  0  0  0  0  0  0  0  0
    7.2635    1.4000    0.0000 N   0  0  0  0  0  0  0  0  0  0  0  0
    8.4743    2.1000    0.0000 C   0  0  0  0  0  0  0  0  0  0  0  0
    9.6848    1.4000    0.0000 C   0  0  0  0  0  0  0  0  0  0  0  0
   10.8954    2.1000    0.0000 C   0  0  0  0  0  0  0  0  0  0  0  0
   12.1059    1.4000    0.0000 C   0  0  0  0  0  0  0  0  0  0  0  0
   13.3164    2.1000    0.0000 O   0  0  0  0  0  0  0  0  0  0  0  0
   14.5288    1.4000    0.0000 C   0  0  0  0  0  0  0  0  0  0  0  0
   15.7413    2.1000    0.0000 C   0  0  0  0  0  0  0  0  0  0  0  0
   12.1059    0.0000    0.0000 O   0  0  0  0  0  0  0  0  0  0  0  0
   16.9537    1.4000    0.0000 C   0  0  0  0  0  0  0  0  0  0  0  0
   18.1662    2.1000    0.0000 C   0  0  0  0  0  0  0  0  0  0  0  0
   18.1662    3.5000    0.0000 C   0  0  0  0  0  0  0  0  0  0  0  0
   16.9537    4.2000    0.0000 C   0  0  0  0  0  0  0  0  0  0  0  0
   15.7413    3.5000    0.0000 C   0  0  0  0  0  0  0  0  0  0  0  0
  1  2  1  0  0  0  0
  2  3  1  0  0  0  0
  3  4  1  0  0  0  0
  4  5  1  0  0  0  0
  5  6  1  0  0  0  0
  1  6  1  0  0  0  0
  1  7  1  0  0  0  0
  7  8  1  0  0  0  0
  5  9  1  0  0  0  0
  8  9  1  0  0  0  0
  3 10  1  0  0  0  0
  8 10  1  0  0  0  0
  8 11  1  0  0  0  0
 11 12  1  0  0  0  0
 12 13  2  0  0  0  0
 12 14  1  0  0  0  0
 14 15  1  0  0  0  0
 15 16  1  0  0  0  0
 16 17  1  0  0  0  0
 17 18  1  0  0  0  0
 18 19  1  0  0  0  0
 19 20  1  0  0  0  0
 20 21  1  0  0  0  0
 18 22  2  0  0  0  0
 21 23  2  0  0  0  0
 23 24  1  0  0  0  0
 24 25  2  0  0  0  0
 25 26  1  0  0  0  0
 26 27  2  0  0  0  0
 27 21  1  0  0  0  0
M  END
> <Molecule Name>
945

> <CDD Number>
CDD-16211

> <Human_sEH_IC50_uM>
0.19

> <Mouse_sEH_IC50_uM>
0.05

$$$$

SketchEl molfile

 27 29  0  0  0  0  0  0  0  0999 V2000
    2.7836    4.8505    0.0000 C   0  0  0  0  0  0  0  0  0  0  0  0
    1.3836    4.8505    0.0000 C   0  0  0  0  0  0  0  0  0  0  0  0
    1.0130    3.5000    0.0000 C   0  0  0  0  0  0  0  0  0  0  0  0
    0.0000    2.5240    0.0000 C   0  0  0  0  0  0  0  0  0  0  0  0
    1.3836    2.5240    0.0000 C   0  0  0  0  0  0  0  0  0  0  0  0
    1.7500    3.8706    0.0000 C   0  0  0  0  0  0  0  0  0  0  0  0
    3.9941    4.1505    0.0000 C   0  0  0  0  0  0  0  0  0  0  0  0
    3.6319    2.8000    0.0000 C   0  0  0  0  0  0  0  0  0  0  0  0
    2.5941    1.8240    0.0000 C   0  0  0  0  0  0  0  0  0  0  0  0
    2.2235    2.8000    0.0000 C   0  0  0  0  0  0  0  0  0  0  0  0
    4.8424    2.1000    0.0000 N   0  0  0  0  0  0  0  0  0  0  0  0
    6.0529    2.8000    0.0000 C   0  0  0  0  0  0  0  0  0  0  0  0
    6.0529    4.2000    0.0000 O   0  0  0  0  0  0  0  0  0  0  0  0
    7.2635    2.1000    0.0000 N   0  0  0  0  0  0  0  0  0  0  0  0
    8.4743    2.8000    0.0000 C   0  0  0  0  0  0  0  0  0  0  0  0
    9.6848    2.1000    0.0000 C   0  0  0  0  0  0  0  0  0  0  0  0
   10.8954    2.8000    0.0000 C   0  0  0  0  0  0  0  0  0  0  0  0
   12.1059    2.1000    0.0000 C   0  0  0  0  0  0  0  0  0  0  0  0
   13.3164    2.8000    0.0000 O   0  0  0  0  0  0  0  0  0  0  0  0
   14.5289    2.1000    0.0000 C   0  0  0  0  0  0  0  0  0  0  0  0
   15.7413    2.8000    0.0000 C   0  0  0  0  0  0  0  0  0  0  0  0
   16.9537    2.1000    0.0000 C   0  0  0  0  0  0  0  0  0  0  0  0
   18.1662    2.8000    0.0000 C   0  0  0  0  0  0  0  0  0  0  0  0
   19.3786    2.1000    0.0000 C   0  0  0  0  0  0  0  0  0  0  0  0
   12.1059    0.7000    0.0000 O   0  0  0  0  0  0  0  0  0  0  0  0
   14.5288    0.7000    0.0000 C   0  0  0  0  0  0  0  0  0  0  0  0
   15.7413    0.0000    0.0000 N   0  0  0  0  0  0  0  0  0  0  0  0
  1  2  1  0  0  0  0
  2  3  1  0  0  0  0
  3  4  1  0  0  0  0
  4  5  1  0  0  0  0
  5  6  1  0  0  0  0
  1  6  1  0  0  0  0
  1  7  1  0  0  0  0
  7  8  1  0  0  0  0
  5  9  1  0  0  0  0
  8  9  1  0  0  0  0
  3 10  1  0  0  0  0
  8 10  1  0  0  0  0
  8 11  1  0  0  0  0
 11 12  1  0  0  0  0
 12 13  2  0  0  0  0
 12 14  1  0  0  0  0
 14 15  1  0  0  0  0
 15 16  1  0  0  0  0
 16 17  1  0  0  0  0
 17 18  1  0  0  0  0
 18 19  1  0  0  0  0
 19 20  1  0  0  0  0
 20 21  1  0  0  0  0
 21 22  1  0  0  0  0
 22 23  1  0  0  0  0
 23 24  1  0  0  0  0
 18 25  2  0  0  0  0
 20 26  1  0  0  0  0
 26 27  3  0  0  0  0
M  END
> <Molecule Name>
944

> <CDD Number>
CDD-16210

> <Human_sEH_IC50_uM>
0.2

> <Mouse_sEH_IC50_uM>
0.05

$$$$

SketchEl molfile

 26 28  0  0  0  0  0  0  0  0999 V2000
    0.7000    2.1000    0.0000 C   0  0  0  0  0  0  0  0  0  0  0  0
    1.9124    1.4000    0.0000 C   0  0  0  0  0  0  0  0  0  0  0  0
    3.1249    2.1000    0.0000 C   0  0  0  0  0  0  0  0  0  0  0  0
    3.1249    3.5000    0.0000 C   0  0  0  0  0  0  0  0  0  0  0  0
    1.9124    4.2000    0.0000 C   0  0  0  0  0  0  0  0  0  0  0  0
    0.7000    3.5000    0.0000 C   0  0  0  0  0  0  0  0  0  0  0  0
    4.3373    1.4000    0.0000 N   0  0  0  0  0  0  0  0  0  0  0  0
    5.5497    2.1000    0.0000 C   0  0  0  0  0  0  0  0  0  0  0  0
    6.7622    1.4000    0.0000 N   0  0  0  0  0  0  0  0  0  0  0  0
    7.9746    2.1000    0.0000 C   0  0  0  0  0  0  0  0  0  0  0  0
    9.1870    1.4000    0.0000 C   0  0  0  0  0  0  0  0  0  0  0  0
   10.3995    2.1000    0.0000 C   0  0  0  0  0  0  0  0  0  0  0  0
   11.6119    1.4000    0.0000 C   0  0  0  0  0  0  0  0  0  0  0  0
   12.8244    2.1000    0.0000 O   0  0  0  0  0  0  0  0  0  0  0  0
   14.0368    1.4000    0.0000 C   0  0  0  0  0  0  0  0  0  0  0  0
   15.2492    2.1000    0.0000 C   0  0  0  0  0  0  0  0  0  0  0  0
   16.4617    1.4000    0.0000 C   0  0  0  0  0  0  0  0  0  0  0  0
   17.6741    2.1000    0.0000 C   0  0  0  0  0  0  0  0  0  0  0  0
   18.8865    1.4000    0.0000 C   0  0  0  0  0  0  0  0  0  0  0  0
    5.5497    3.5000    0.0000 O   0  0  0  0  0  0  0  0  0  0  0  0
    2.4249    0.8876    0.0000 C   0  0  0  0  0  0  0  0  0  0  0  0
    0.0000    0.8876    0.0000 C   0  0  0  0  0  0  0  0  0  0  0  0
    1.0726    1.2499    0.0000 C   0  0  0  0  0  0  0  0  0  0  0  0
    1.0726    2.6499    0.0000 C   0  0  0  0  0  0  0  0  0  0  0  0
   11.6119    0.0000    0.0000 O   0  0  0  0  0  0  0  0  0  0  0  0
   14.0368    0.0000    0.0000 C   0  0  0  0  0  0  0  0  0  0  0  0
  1  2  1  0  0  0  0
  2  3  1  0  0  0  0
  3  4  1  0  0  0  0
  4  5  1  0  0  0  0
  5  6  1  0  0  0  0
  6  1  1  0  0  0  0
  3  7  1  0  0  0  0
  7  8  1  0  0  0  0
  8  9  1  0  0  0  0
  9 10  1  0  0  0  0
 10 11  1  0  0  0  0
 11 12  1  0  0  0  0
 12 13  1  0  0  0  0
 13 14  1  0  0  0  0
 14 15  1  0  0  0  0
 15 16  1  0  0  0  0
 16 17  1  0  0  0  0
 17 18  1  0  0  0  0
 18 19  1  0  0  0  0
  8 20  2  0  0  0  0
  3 21  1  0  0  0  0
  1 22  1  0  0  0  0
 21 23  1  0  0  0  0
 23 22  1  0  0  0  0
 23 24  1  0  0  0  0
 24  5  1  0  0  0  0
 13 25  2  0  0  0  0
 15 26  1  0  0  0  0
M  END
> <Molecule Name>
943

> <CDD Number>
CDD-16261

> <Human_sEH_IC50_uM>
0.13

> <Mouse_sEH_IC50_uM>
0.05

$$$$

SketchEl molfile

 35 39  0  0  0  0  0  0  0  0999 V2000
    2.7836    5.2605    0.0000 C   0  0  0  0  0  0  0  0  0  0  0  0
    1.3836    5.2605    0.0000 C   0  0  0  0  0  0  0  0  0  0  0  0
    1.0130    3.9101    0.0000 C   0  0  0  0  0  0  0  0  0  0  0  0
    0.0000    2.9340    0.0000 C   0  0  0  0  0  0  0  0  0  0  0  0
    1.3836    2.9340    0.0000 C   0  0  0  0  0  0  0  0  0  0  0  0
    1.7500    4.2806    0.0000 C   0  0  0  0  0  0  0  0  0  0  0  0
    3.9941    4.5605    0.0000 C   0  0  0  0  0  0  0  0  0  0  0  0
    3.6319    3.2101    0.0000 C   0  0  0  0  0  0  0  0  0  0  0  0
    2.5941    2.2340    0.0000 C   0  0  0  0  0  0  0  0  0  0  0  0
    2.2235    3.2101    0.0000 C   0  0  0  0  0  0  0  0  0  0  0  0
    4.8424    2.5101    0.0000 N   0  0  0  0  0  0  0  0  0  0  0  0
    6.0529    3.2101    0.0000 C   0  0  0  0  0  0  0  0  0  0  0  0
    6.0529    4.6101    0.0000 O   0  0  0  0  0  0  0  0  0  0  0  0
    7.2635    2.5101    0.0000 N   0  0  0  0  0  0  0  0  0  0  0  0
    8.4743    3.2101    0.0000 C   0  0  0  0  0  0  0  0  0  0  0  0
    9.1743    1.9976    0.0000 C   0  0  0  0  0  0  0  0  0  0  0  0
   10.5286    2.3524    0.0000 C   0  0  0  0  0  0  0  0  0  0  0  0
   11.8747    1.9976    0.0000 C   0  0  0  0  0  0  0  0  0  0  0  0
   11.1748    3.2101    0.0000 C   0  0  0  0  0  0  0  0  0  0  0  0
    9.8204    2.8554    0.0000 C   0  0  0  0  0  0  0  0  0  0  0  0
   12.1648    4.2000    0.0000 C   0  0  0  0  0  0  0  0  0  0  0  0
   12.1648    5.6000    0.0000 O   0  0  0  0  0  0  0  0  0  0  0  0
   13.3772    3.5000    0.0000 O   0  0  0  0  0  0  0  0  0  0  0  0
   14.5897    4.2000    0.0000 C   0  0  0  0  0  0  0  0  0  0  0  0
   15.8021    3.5000    0.0000 C   0  0  0  0  0  0  0  0  0  0  0  0
   15.8021    2.1000    0.0000 C   0  0  0  0  0  0  0  0  0  0  0  0
   17.0145    1.4000    0.0000 C   0  0  0  0  0  0  0  0  0  0  0  0
   18.2270    2.1000    0.0000 C   0  0  0  0  0  0  0  0  0  0  0  0
   18.2270    3.5000    0.0000 C   0  0  0  0  0  0  0  0  0  0  0  0
   17.0145    4.2000    0.0000 C   0  0  0  0  0  0  0  0  0  0  0  0
   19.4394    1.4000    0.0000 C   0  0  0  0  0  0  0  0  0  0  0  0
   19.4394    0.0000    0.0000 O   0  0  0  0  0  0  0  0  0  0  0  0
   20.6518    2.1000    0.0000 O   0  0  0  0  0  0  0  0  0  0  0  0
   21.8643    1.4000    0.0000 C   0  0  0  0  0  0  0  0  0  0  0  0
   23.0767    2.1000    0.0000 C   0  0  0  0  0  0  0  0  0  0  0  0
  1  2  1  0  0  0  0
  2  3  1  0  0  0  0
  3  4  1  0  0  0  0
  4  5  1  0  0  0  0
  5  6  1  0  0  0  0
  1  6  1  0  0  0  0
  1  7  1  0  0  0  0
  7  8  1  0  0  0  0
  5  9  1  0  0  0  0
  8  9  1  0  0  0  0
  3 10  1  0  0  0  0
  8 10  1  0  0  0  0
  8 11  1  0  0  0  0
 11 12  1  0  0  0  0
 12 13  2  0  0  0  0
 12 14  1  0  0  0  0
 14 15  1  0  0  0  0
 15 16  1  0  0  0  0
 16 17  1  0  0  0  0
 17 18  1  0  0  0  0
 18 19  1  0  0  0  0
 19 20  1  0  0  0  0
 20 15  1  0  0  0  0
 19 21  1  0  0  0  0
 21 22  2  0  0  0  0
 21 23  1  0  0  0  0
 23 24  1  0  0  0  0
 24 25  1  0  0  0  0
 25 26  2  0  0  0  0
 26 27  1  0  0  0  0
 27 28  2  0  0  0  0
 28 29  1  0  0  0  0
 29 30  2  0  0  0  0
 30 25  1  0  0  0  0
 28 31  1  0  0  0  0
 31 32  2  0  0  0  0
 31 33  1  0  0  0  0
 33 34  1  0  0  0  0
 34 35  1  0  0  0  0
M  END
> <Molecule Name>
942

> <CDD Number>
CDD-16209

> <Human_sEH_IC50_uM>
0.1

> <Mouse_sEH_IC50_uM>
0.05

$$$$

SketchEl molfile

 30 32  0  0  0  0  0  0  0  0999 V2000
    2.7836    3.4505    0.0000 C   0  0  0  0  0  0  0  0  0  0  0  0
    1.3836    3.4505    0.0000 C   0  0  0  0  0  0  0  0  0  0  0  0
    1.0130    2.1000    0.0000 C   0  0  0  0  0  0  0  0  0  0  0  0
    0.0000    1.1240    0.0000 C   0  0  0  0  0  0  0  0  0  0  0  0
    1.3836    1.1240    0.0000 C   0  0  0  0  0  0  0  0  0  0  0  0
    1.7500    2.4706    0.0000 C   0  0  0  0  0  0  0  0  0  0  0  0
    3.9941    2.7505    0.0000 C   0  0  0  0  0  0  0  0  0  0  0  0
    3.6319    1.4000    0.0000 C   0  0  0  0  0  0  0  0  0  0  0  0
    2.5941    0.4240    0.0000 C   0  0  0  0  0  0  0  0  0  0  0  0
    2.2235    1.4000    0.0000 C   0  0  0  0  0  0  0  0  0  0  0  0
    4.8424    0.7000    0.0000 N   0  0  0  0  0  0  0  0  0  0  0  0
    6.0529    1.4000    0.0000 C   0  0  0  0  0  0  0  0  0  0  0  0
    6.0529    2.8000    0.0000 O   0  0  0  0  0  0  0  0  0  0  0  0
    7.2635    0.7000    0.0000 N   0  0  0  0  0  0  0  0  0  0  0  0
    8.4743    1.4000    0.0000 C   0  0  0  0  0  0  0  0  0  0  0  0
    9.6848    0.7000    0.0000 C   0  0  0  0  0  0  0  0  0  0  0  0
   10.8954    1.4000    0.0000 C   0  0  0  0  0  0  0  0  0  0  0  0
   12.1059    0.7000    0.0000 C   0  0  0  0  0  0  0  0  0  0  0  0
   13.3164    1.4000    0.0000 C   0  0  0  0  0  0  0  0  0  0  0  0
   14.5288    0.7000    0.0000 O   0  0  0  0  0  0  0  0  0  0  0  0
   15.7413    1.4000    0.0000 C   0  0  0  0  0  0  0  0  0  0  0  0
   16.9537    0.7000    0.0000 C   0  0  0  0  0  0  0  0  0  0  0  0
   18.1662    1.4000    0.0000 C   0  0  0  0  0  0  0  0  0  0  0  0
   19.3786    0.7000    0.0000 C   0  0  0  0  0  0  0  0  0  0  0  0
   20.5910    1.4000    0.0000 C   0  0  0  0  0  0  0  0  0  0  0  0
   21.8035    0.7000    0.0000 N   0  0  0  0  0  0  0  0  0  0  0  0
   23.0159    1.4000    0.0000 S   0  0  0  0  0  0  0  0  0  0  0  0
   24.2283    0.7000    0.0000 C   0  0  0  0  0  0  0  0  0  0  0  0
   23.0159    2.8000    0.0000 O   0  0  0  0  0  0  0  0  0  0  0  0
   23.0159    0.0000    0.0000 O   0  0  0  0  0  0  0  0  0  0  0  0
  1  2  1  0  0  0  0
  2  3  1  0  0  0  0
  3  4  1  0  0  0  0
  4  5  1  0  0  0  0
  5  6  1  0  0  0  0
  1  6  1  0  0  0  0
  1  7  1  0  0  0  0
  7  8  1  0  0  0  0
  5  9  1  0  0  0  0
  8  9  1  0  0  0  0
  3 10  1  0  0  0  0
  8 10  1  0  0  0  0
  8 11  1  0  0  0  0
 11 12  1  0  0  0  0
 12 13  2  0  0  0  0
 12 14  1  0  0  0  0
 14 15  1  0  0  0  0
 15 16  1  0  0  0  0
 16 17  1  0  0  0  0
 17 18  1  0  0  0  0
 18 19  1  0  0  0  0
 19 20  1  0  0  0  0
 20 21  1  0  0  0  0
 21 22  1  0  0  0  0
 22 23  1  0  0  0  0
 23 24  1  0  0  0  0
 24 25  1  0  0  0  0
 25 26  1  0  0  0  0
 26 27  1  0  0  0  0
 27 28  1  0  0  0  0
 27 29  2  0  0  0  0
 27 30  2  0  0  0  0
M  END
> <Molecule Name>
941

> <CDD Number>
CDD-16208

> <Human_sEH_IC50_uM>
0.1

> <Mouse_sEH_IC50_uM>
0.05

$$$$

SketchEl molfile

 30 32  0  0  0  0  0  0  0  0999 V2000
    2.7836    3.4505    0.0000 C   0  0  0  0  0  0  0  0  0  0  0  0
    1.3836    3.4505    0.0000 C   0  0  0  0  0  0  0  0  0  0  0  0
    1.0130    2.1000    0.0000 C   0  0  0  0  0  0  0  0  0  0  0  0
    0.0000    1.1240    0.0000 C   0  0  0  0  0  0  0  0  0  0  0  0
    1.3836    1.1240    0.0000 C   0  0  0  0  0  0  0  0  0  0  0  0
    1.7500    2.4706    0.0000 C   0  0  0  0  0  0  0  0  0  0  0  0
    3.9941    2.7505    0.0000 C   0  0  0  0  0  0  0  0  0  0  0  0
    3.6319    1.4000    0.0000 C   0  0  0  0  0  0  0  0  0  0  0  0
    2.5941    0.4240    0.0000 C   0  0  0  0  0  0  0  0  0  0  0  0
    2.2235    1.4000    0.0000 C   0  0  0  0  0  0  0  0  0  0  0  0
    4.8424    0.7000    0.0000 N   0  0  0  0  0  0  0  0  0  0  0  0
    6.0529    1.4000    0.0000 C   0  0  0  0  0  0  0  0  0  0  0  0
    6.0529    2.8000    0.0000 O   0  0  0  0  0  0  0  0  0  0  0  0
    7.2635    0.7000    0.0000 N   0  0  0  0  0  0  0  0  0  0  0  0
    8.4743    1.4000    0.0000 C   0  0  0  0  0  0  0  0  0  0  0  0
    9.6848    0.7000    0.0000 C   0  0  0  0  0  0  0  0  0  0  0  0
   10.8954    1.4000    0.0000 C   0  0  0  0  0  0  0  0  0  0  0  0
   12.1059    0.7000    0.0000 C   0  0  0  0  0  0  0  0  0  0  0  0
   13.3164    1.4000    0.0000 C   0  0  0  0  0  0  0  0  0  0  0  0
   14.5288    0.7000    0.0000 O   0  0  0  0  0  0  0  0  0  0  0  0
   15.7413    1.4000    0.0000 C   0  0  0  0  0  0  0  0  0  0  0  0
   16.9537    0.7000    0.0000 C   0  0  0  0  0  0  0  0  0  0  0  0
   18.1662    1.4000    0.0000 O   0  0  0  0  0  0  0  0  0  0  0  0
   19.3786    0.7000    0.0000 C   0  0  0  0  0  0  0  0  0  0  0  0
   20.5910    1.4000    0.0000 C   0  0  0  0  0  0  0  0  0  0  0  0
   21.8035    0.7000    0.0000 N   0  0  0  0  0  0  0  0  0  0  0  0
   23.0159    1.4000    0.0000 S   0  0  0  0  0  0  0  0  0  0  0  0
   24.2283    0.7000    0.0000 C   0  0  0  0  0  0  0  0  0  0  0  0
   23.0159    2.8000    0.0000 O   0  0  0  0  0  0  0  0  0  0  0  0
   23.0159    0.0000    0.0000 O   0  0  0  0  0  0  0  0  0  0  0  0
  1  2  1  0  0  0  0
  2  3  1  0  0  0  0
  3  4  1  0  0  0  0
  4  5  1  0  0  0  0
  5  6  1  0  0  0  0
  1  6  1  0  0  0  0
  1  7  1  0  0  0  0
  7  8  1  0  0  0  0
  5  9  1  0  0  0  0
  8  9  1  0  0  0  0
  3 10  1  0  0  0  0
  8 10  1  0  0  0  0
  8 11  1  0  0  0  0
 11 12  1  0  0  0  0
 12 13  2  0  0  0  0
 12 14  1  0  0  0  0
 14 15  1  0  0  0  0
 15 16  1  0  0  0  0
 16 17  1  0  0  0  0
 17 18  1  0  0  0  0
 18 19  1  0  0  0  0
 19 20  1  0  0  0  0
 20 21  1  0  0  0  0
 21 22  1  0  0  0  0
 22 23  1  0  0  0  0
 23 24  1  0  0  0  0
 24 25  1  0  0  0  0
 25 26  1  0  0  0  0
 26 27  1  0  0  0  0
 27 28  1  0  0  0  0
 27 29  2  0  0  0  0
 27 30  2  0  0  0  0
M  END
> <Molecule Name>
940

> <CDD Number>
CDD-16207

> <Human_sEH_IC50_uM>
0.1

> <Mouse_sEH_IC50_uM>
0.05

$$$$

SketchEl molfile

 17 18  0  0  0  0  0  0  0  0999 V2000
    0.0000    5.0917    0.0000 C   0  0  0  0  0  0  0  0  0  0  0  0
    0.9899    4.1017    0.0000 C   0  0  0  0  0  0  0  0  0  0  0  0
    2.2063    4.7950    0.0000 C   0  0  0  0  0  0  0  0  0  0  0  0
    3.6061    4.7950    0.0000 C   0  0  0  0  0  0  0  0  0  0  0  0
    2.6163    5.7851    0.0000 C   0  0  0  0  0  0  0  0  0  0  0  0
    1.3998    5.0917    0.0000 C   0  0  0  0  0  0  0  0  0  0  0  0
    4.8186    4.0950    0.0000 N   0  0  0  0  0  0  0  0  0  0  0  0
    6.0310    4.7950    0.0000 C   0  0  0  0  0  0  0  0  0  0  0  0
    6.0310    6.1950    0.0000 O   0  0  0  0  0  0  0  0  0  0  0  0
    7.2434    4.0950    0.0000 C   0  0  0  0  0  0  0  0  0  0  0  0
    7.3898    2.7027    0.0000 N   0  0  0  0  0  0  0  0  0  0  0  0
    8.7592    2.4116    0.0000 C   0  0  0  0  0  0  0  0  0  0  0  0
    9.4592    3.6240    0.0000 C   0  0  0  0  0  0  0  0  0  0  0  0
    8.5224    4.6644    0.0000 O   0  0  0  0  0  0  0  0  0  0  0  0
    9.3286    1.1326    0.0000 C   0  0  0  0  0  0  0  0  0  0  0  0
    8.5057    0.0000    0.0000 C   0  0  0  0  0  0  0  0  0  0  0  0
   10.7210    0.9863    0.0000 C   0  0  0  0  0  0  0  0  0  0  0  0
  1  2  1  0  0  0  0
  2  3  1  0  0  0  0
  3  4  1  0  0  0  0
  4  5  1  0  0  0  0
  5  6  1  0  0  0  0
  6  1  1  0  0  0  0
  4  7  1  0  0  0  0
  7  8  1  0  0  0  0
  8  9  2  0  0  0  0
  8 10  1  0  0  0  0
 10 11  2  0  0  0  0
 11 12  1  0  0  0  0
 12 13  1  0  0  0  0
 13 14  1  0  0  0  0
 14 10  1  0  0  0  0
 12 15  1  0  0  0  0
 15 16  1  0  0  0  0
 15 17  1  0  0  0  0
M  END
> <Molecule Name>
937

> <CDD Number>
CDD-16206

> <Human_sEH_IC50_uM>
100.0

> <Mouse_sEH_IC50_uM>
100.0

$$$$

SketchEl molfile

 21 23  0  0  0  0  0  0  0  0999 V2000
    0.0000    5.5307    0.0000 C   0  0  0  0  0  0  0  0  0  0  0  0
    0.9899    4.5408    0.0000 C   0  0  0  0  0  0  0  0  0  0  0  0
    2.2063    5.2340    0.0000 C   0  0  0  0  0  0  0  0  0  0  0  0
    3.6061    5.2340    0.0000 C   0  0  0  0  0  0  0  0  0  0  0  0
    2.6163    6.2241    0.0000 C   0  0  0  0  0  0  0  0  0  0  0  0
    1.3998    5.5307    0.0000 C   0  0  0  0  0  0  0  0  0  0  0  0
    4.8186    4.5340    0.0000 N   0  0  0  0  0  0  0  0  0  0  0  0
    6.0310    5.2340    0.0000 C   0  0  0  0  0  0  0  0  0  0  0  0
    6.0310    6.6340    0.0000 O   0  0  0  0  0  0  0  0  0  0  0  0
    7.2434    4.5340    0.0000 C   0  0  0  0  0  0  0  0  0  0  0  0
    7.3898    3.1417    0.0000 N   0  0  0  0  0  0  0  0  0  0  0  0
    8.7592    2.8506    0.0000 C   0  0  0  0  0  0  0  0  0  0  0  0
    9.4592    4.0630    0.0000 C   0  0  0  0  0  0  0  0  0  0  0  0
    8.5224    5.1034    0.0000 O   0  0  0  0  0  0  0  0  0  0  0  0
    9.3286    1.5716    0.0000 C   0  0  0  0  0  0  0  0  0  0  0  0
   10.7210    1.4253    0.0000 C   0  0  0  0  0  0  0  0  0  0  0  0
   11.2904    0.1463    0.0000 C   0  0  0  0  0  0  0  0  0  0  0  0
   12.6827    0.0000    0.0000 C   0  0  0  0  0  0  0  0  0  0  0  0
   13.5056    1.1326    0.0000 C   0  0  0  0  0  0  0  0  0  0  0  0
   12.9362    2.4116    0.0000 C   0  0  0  0  0  0  0  0  0  0  0  0
   11.5439    2.5579    0.0000 C   0  0  0  0  0  0  0  0  0  0  0  0
  1  2  1  0  0  0  0
  2  3  1  0  0  0  0
  3  4  1  0  0  0  0
  4  5  1  0  0  0  0
  5  6  1  0  0  0  0
  6  1  1  0  0  0  0
  4  7  1  0  0  0  0
  7  8  1  0  0  0  0
  8  9  2  0  0  0  0
  8 10  1  0  0  0  0
 10 11  2  0  0  0  0
 11 12  1  0  0  0  0
 12 13  1  0  0  0  0
 13 14  1  0  0  0  0
 14 10  1  0  0  0  0
 12 15  1  0  0  0  0
 15 16  1  0  0  0  0
 16 17  2  0  0  0  0
 17 18  1  0  0  0  0
 18 19  2  0  0  0  0
 19 20  1  0  0  0  0
 20 21  2  0  0  0  0
 21 16  1  0  0  0  0
M  END
> <Molecule Name>
936

> <CDD Number>
CDD-16205

> <Human_sEH_IC50_uM>
100.0

> <Mouse_sEH_IC50_uM>
100.0

$$$$

SketchEl molfile

 15 14  0  0  0  0  0  0  0  0999 V2000
    0.0000    0.0000    0.0000 C   0  0  0  0  0  0  0  0  0  0  0  0
    1.2124    0.7000    0.0000 C   0  0  0  0  0  0  0  0  0  0  0  0
    2.4249    0.0000    0.0000 C   0  0  0  0  0  0  0  0  0  0  0  0
    3.6373    0.7000    0.0000 C   0  0  0  0  0  0  0  0  0  0  0  0
    4.8497    0.0000    0.0000 N   0  0  0  0  0  0  0  0  0  0  0  0
    6.0622    0.7000    0.0000 C   0  0  0  0  0  0  0  0  0  0  0  0
    7.2746    0.0000    0.0000 C   0  0  0  0  0  0  0  0  0  0  0  0
    8.4870    0.7000    0.0000 C   0  0  0  0  0  0  0  0  0  0  0  0
    9.6995    0.0000    0.0000 N   0  0  0  0  0  0  0  0  0  0  0  0
   10.9119    0.7000    0.0000 C   0  0  0  0  0  0  0  0  0  0  0  0
    6.0622    2.1000    0.0000 O   0  0  0  0  0  0  0  0  0  0  0  0
    8.4870    2.1000    0.0000 O   0  0  0  0  0  0  0  0  0  0  0  0
   12.1244    0.0000    0.0000 C   0  0  0  0  0  0  0  0  0  0  0  0
   13.3368    0.7000    0.0000 C   0  0  0  0  0  0  0  0  0  0  0  0
   14.5492    0.0000    0.0000 C   0  0  0  0  0  0  0  0  0  0  0  0
  2  1  1  0  0  0  0
  3  2  1  0  0  0  0
  4  3  1  0  0  0  0
  5  4  1  0  0  0  0
  6  5  1  0  0  0  0
  7  6  1  0  0  0  0
  8  7  1  0  0  0  0
  9  8  1  0  0  0  0
 10  9  1  0  0  0  0
  6 11  2  0  0  0  0
  8 12  2  0  0  0  0
 10 13  1  0  0  0  0
 13 14  1  0  0  0  0
 14 15  1  0  0  0  0
M  END
> <Molecule Name>
935

> <CDD Number>
CDD-16204

> <Human_sEH_IC50_uM>
100.0

> <Mouse_sEH_IC50_uM>
100.0

$$$$

SketchEl molfile

 21 22  0  0  0  0  0  0  0  0999 V2000
    1.2124    2.1000    0.0000 C   0  0  0  0  0  0  0  0  0  0  0  0
    1.2124    0.7000    0.0000 C   0  0  0  0  0  0  0  0  0  0  0  0
    2.4249    0.0000    0.0000 C   0  0  0  0  0  0  0  0  0  0  0  0
    3.6373    0.7000    0.0000 C   0  0  0  0  0  0  0  0  0  0  0  0
    3.6373    2.1000    0.0000 C   0  0  0  0  0  0  0  0  0  0  0  0
    2.4249    2.8000    0.0000 C   0  0  0  0  0  0  0  0  0  0  0  0
    4.8497    0.0000    0.0000 N   0  0  0  0  0  0  0  0  0  0  0  0
    6.0622    0.7000    0.0000 C   0  0  0  0  0  0  0  0  0  0  0  0
    7.2746    0.0000    0.0000 C   0  0  0  0  0  0  0  0  0  0  0  0
    8.4870    0.7000    0.0000 C   0  0  0  0  0  0  0  0  0  0  0  0
    9.6995    0.0000    0.0000 N   0  0  0  0  0  0  0  0  0  0  0  0
    6.0622    2.1000    0.0000 O   0  0  0  0  0  0  0  0  0  0  0  0
    8.4870    2.1000    0.0000 O   0  0  0  0  0  0  0  0  0  0  0  0
   10.9119    0.7000    0.0000 C   0  0  0  0  0  0  0  0  0  0  0  0
   12.1244    0.0000    0.0000 C   0  0  0  0  0  0  0  0  0  0  0  0
   13.3368    0.7000    0.0000 C   0  0  0  0  0  0  0  0  0  0  0  0
   13.3368    2.1000    0.0000 C   0  0  0  0  0  0  0  0  0  0  0  0
   12.1244    2.8000    0.0000 C   0  0  0  0  0  0  0  0  0  0  0  0
   10.9119    2.1000    0.0000 C   0  0  0  0  0  0  0  0  0  0  0  0
   14.5492    2.8000    0.0000 Cl  0  0  0  0  0  0  0  0  0  0  0  0
    0.0000    2.8000    0.0000 Cl  0  0  0  0  0  0  0  0  0  0  0  0
  1  2  2  0  0  0  0
  2  3  1  0  0  0  0
  3  4  2  0  0  0  0
  4  5  1  0  0  0  0
  5  6  2  0  0  0  0
  6  1  1  0  0  0  0
  7  4  1  0  0  0  0
  8  7  1  0  0  0  0
  9  8  1  0  0  0  0
 10  9  1  0  0  0  0
 11 10  1  0  0  0  0
  8 12  2  0  0  0  0
 10 13  2  0  0  0  0
 11 14  1  0  0  0  0
 14 15  2  0  0  0  0
 15 16  1  0  0  0  0
 16 17  2  0  0  0  0
 17 18  1  0  0  0  0
 18 19  2  0  0  0  0
 19 14  1  0  0  0  0
 17 20  1  0  0  0  0
  1 21  1  0  0  0  0
M  END
> <Molecule Name>
934

> <CDD Number>
CDD-16203

> <Human_sEH_IC50_uM>
100.0

> <Mouse_sEH_IC50_uM>
100.0

$$$$

SketchEl molfile

 23 24  0  0  0  0  0  0  0  0999 V2000
    2.4249    2.1000    0.0000 C   0  0  0  0  0  0  0  0  0  0  0  0
    2.4249    0.7000    0.0000 C   0  0  0  0  0  0  0  0  0  0  0  0
    3.6373    0.0000    0.0000 C   0  0  0  0  0  0  0  0  0  0  0  0
    4.8497    0.7000    0.0000 C   0  0  0  0  0  0  0  0  0  0  0  0
    4.8497    2.1000    0.0000 C   0  0  0  0  0  0  0  0  0  0  0  0
    3.6373    2.8000    0.0000 C   0  0  0  0  0  0  0  0  0  0  0  0
    6.0622    0.0000    0.0000 N   0  0  0  0  0  0  0  0  0  0  0  0
    7.2746    0.7000    0.0000 C   0  0  0  0  0  0  0  0  0  0  0  0
    8.4870    0.0000    0.0000 C   0  0  0  0  0  0  0  0  0  0  0  0
    9.6995    0.7000    0.0000 C   0  0  0  0  0  0  0  0  0  0  0  0
   10.9119    0.0000    0.0000 N   0  0  0  0  0  0  0  0  0  0  0  0
   12.1244    0.7000    0.0000 C   0  0  0  0  0  0  0  0  0  0  0  0
    1.2124    2.8000    0.0000 O   0  0  0  0  0  0  0  0  0  0  0  0
    7.2746    2.1000    0.0000 O   0  0  0  0  0  0  0  0  0  0  0  0
    9.6995    2.1000    0.0000 O   0  0  0  0  0  0  0  0  0  0  0  0
   13.3368    0.0000    0.0000 C   0  0  0  0  0  0  0  0  0  0  0  0
   14.5492    0.7000    0.0000 C   0  0  0  0  0  0  0  0  0  0  0  0
   14.5492    2.1000    0.0000 C   0  0  0  0  0  0  0  0  0  0  0  0
   13.3368    2.8000    0.0000 C   0  0  0  0  0  0  0  0  0  0  0  0
   12.1244    2.1000    0.0000 C   0  0  0  0  0  0  0  0  0  0  0  0
   15.7617    2.8000    0.0000 O   0  0  0  0  0  0  0  0  0  0  0  0
   16.9741    2.1000    0.0000 C   0  0  0  0  0  0  0  0  0  0  0  0
    0.0000    2.1000    0.0000 C   0  0  0  0  0  0  0  0  0  0  0  0
  1  2  2  0  0  0  0
  2  3  1  0  0  0  0
  3  4  2  0  0  0  0
  4  5  1  0  0  0  0
  5  6  2  0  0  0  0
  6  1  1  0  0  0  0
  7  4  1  0  0  0  0
  8  7  1  0  0  0  0
  9  8  1  0  0  0  0
 10  9  1  0  0  0  0
 11 10  1  0  0  0  0
 12 11  1  0  0  0  0
  1 13  1  0  0  0  0
  8 14  2  0  0  0  0
 10 15  2  0  0  0  0
 12 16  2  0  0  0  0
 16 17  1  0  0  0  0
 17 18  2  0  0  0  0
 18 19  1  0  0  0  0
 19 20  2  0  0  0  0
 20 12  1  0  0  0  0
 18 21  1  0  0  0  0
 21 22  1  0  0  0  0
 13 23  1  0  0  0  0
M  END
> <Molecule Name>
933

> <CDD Number>
CDD-16202

> <Human_sEH_IC50_uM>
100.0

> <Mouse_sEH_IC50_uM>
100.0

$$$$

SketchEl molfile

 25 26  0  0  0  0  0  0  0  0999 V2000
    4.8497    2.8000    0.0000 C   0  0  0  0  0  0  0  0  0  0  0  0
    6.0622    2.1000    0.0000 N   0  0  0  0  0  0  0  0  0  0  0  0
    7.2746    2.8000    0.0000 C   0  0  0  0  0  0  0  0  0  0  0  0
    8.4870    2.1000    0.0000 C   0  0  0  0  0  0  0  0  0  0  0  0
    9.6995    2.8000    0.0000 C   0  0  0  0  0  0  0  0  0  0  0  0
   10.9119    2.1000    0.0000 N   0  0  0  0  0  0  0  0  0  0  0  0
   12.1244    2.8000    0.0000 C   0  0  0  0  0  0  0  0  0  0  0  0
    7.2746    4.2000    0.0000 O   0  0  0  0  0  0  0  0  0  0  0  0
    9.6995    4.2000    0.0000 O   0  0  0  0  0  0  0  0  0  0  0  0
   13.3368    2.1000    0.0000 C   0  0  0  0  0  0  0  0  0  0  0  0
   14.5492    2.8000    0.0000 C   0  0  0  0  0  0  0  0  0  0  0  0
   14.5492    4.2000    0.0000 C   0  0  0  0  0  0  0  0  0  0  0  0
   13.3368    4.9000    0.0000 C   0  0  0  0  0  0  0  0  0  0  0  0
   12.1244    4.2000    0.0000 C   0  0  0  0  0  0  0  0  0  0  0  0
   13.3368    0.7000    0.0000 N   0  3  0  0  0  0  0  0  0  0  0  0
   14.5492    0.0000    0.0000 O   0  0  0  0  0  0  0  0  0  0  0  0
   12.1244    0.0000    0.0000 O   0  5  0  0  0  0  0  0  0  0  0  0
    4.8497    4.2000    0.0000 C   0  0  0  0  0  0  0  0  0  0  0  0
    3.6373    4.9000    0.0000 C   0  0  0  0  0  0  0  0  0  0  0  0
    2.4249    4.2000    0.0000 C   0  0  0  0  0  0  0  0  0  0  0  0
    2.4249    2.8000    0.0000 C   0  0  0  0  0  0  0  0  0  0  0  0
    3.6373    2.1000    0.0000 C   0  0  0  0  0  0  0  0  0  0  0  0
    1.2124    2.1000    0.0000 N   0  3  0  0  0  0  0  0  0  0  0  0
    1.2124    0.7000    0.0000 O   0  0  0  0  0  0  0  0  0  0  0  0
    0.0000    2.8000    0.0000 O   0  5  0  0  0  0  0  0  0  0  0  0
  2  1  1  0  0  0  0
  3  2  1  0  0  0  0
  4  3  1  0  0  0  0
  5  4  1  0  0  0  0
  6  5  1  0  0  0  0
  7  6  1  0  0  0  0
  3  8  2  0  0  0  0
  5  9  2  0  0  0  0
  7 10  2  0  0  0  0
 10 11  1  0  0  0  0
 11 12  2  0  0  0  0
 12 13  1  0  0  0  0
 13 14  2  0  0  0  0
 14  7  1  0  0  0  0
 10 15  1  0  0  0  0
  1 18  2  0  0  0  0
 18 19  1  0  0  0  0
 19 20  2  0  0  0  0
 20 21  1  0  0  0  0
 21 22  2  0  0  0  0
 22  1  1  0  0  0  0
 21 23  1  0  0  0  0
 15 16  2  0  0  0  0
 15 17  1  0  0  0  0
 23 24  2  0  0  0  0
 23 25  1  0  0  0  0
M  CHG  4  15   1  17  -1  23   1  25  -1
M  END
> <Molecule Name>
932

> <CDD Number>
CDD-16201

> <Human_sEH_IC50_uM>
100.0

> <Mouse_sEH_IC50_uM>
100.0

$$$$

SketchEl molfile

 22 22  0  0  0  0  0  0  0  0999 V2000
    0.0000    4.4490    0.0000 C   0  0  0  0  0  0  0  0  0  0  0  0
    0.9899    3.4590    0.0000 C   0  0  0  0  0  0  0  0  0  0  0  0
    2.2063    4.1523    0.0000 C   0  0  0  0  0  0  0  0  0  0  0  0
    3.6061    4.1523    0.0000 C   0  0  0  0  0  0  0  0  0  0  0  0
    2.6163    5.1424    0.0000 C   0  0  0  0  0  0  0  0  0  0  0  0
    1.3998    4.4490    0.0000 C   0  0  0  0  0  0  0  0  0  0  0  0
    4.8186    3.4523    0.0000 N   0  0  0  0  0  0  0  0  0  0  0  0
    6.0310    4.1523    0.0000 C   0  0  0  0  0  0  0  0  0  0  0  0
    7.2434    3.4523    0.0000 C   0  0  0  0  0  0  0  0  0  0  0  0
    8.4559    4.1523    0.0000 N   0  0  0  0  0  0  0  0  0  0  0  0
    9.6683    3.4523    0.0000 C   0  0  0  0  0  0  0  0  0  0  0  0
   10.8807    4.1523    0.0000 C   0  0  0  0  0  0  0  0  0  0  0  0
    6.0310    5.5523    0.0000 O   0  0  0  0  0  0  0  0  0  0  0  0
    7.2434    2.0523    0.0000 O   0  0  0  0  0  0  0  0  0  0  0  0
   12.0932    3.4523    0.0000 O   0  0  0  0  0  0  0  0  0  0  0  0
   13.3056    4.1523    0.0000 C   0  0  0  0  0  0  0  0  0  0  0  0
   10.8807    5.5523    0.0000 O   0  0  0  0  0  0  0  0  0  0  0  0
    9.6683    2.0523    0.0000 C   0  0  0  0  0  0  0  0  0  0  0  0
   10.8807    1.3523    0.0000 C   0  0  0  0  0  0  0  0  0  0  0  0
   10.5184    0.0000    0.0000 O   0  0  0  0  0  0  0  0  0  0  0  0
   11.8707    2.3422    0.0000 O   0  0  0  0  0  0  0  0  0  0  0  0
   13.0831    1.6422    0.0000 C   0  0  0  0  0  0  0  0  0  0  0  0
  1  2  1  0  0  0  0
  2  3  1  0  0  0  0
  3  4  1  0  0  0  0
  4  5  1  0  0  0  0
  5  6  1  0  0  0  0
  6  1  1  0  0  0  0
  7  4  1  0  0  0  0
  8  7  1  0  0  0  0
  9  8  1  0  0  0  0
 10  9  1  0  0  0  0
 11 10  1  0  0  0  0
 12 11  1  0  0  0  0
  8 13  2  0  0  0  0
  9 14  2  0  0  0  0
 12 15  1  0  0  0  0
 15 16  1  0  0  0  0
 12 17  2  0  0  0  0
 11 18  1  0  0  0  0
 18 19  1  0  0  0  0
 19 20  2  0  0  0  0
 19 21  1  0  0  0  0
 21 22  1  0  0  0  0
M  END
> <Molecule Name>
931

> <CDD Number>
CDD-16200

> <Human_sEH_IC50_uM>
100.0

> <Mouse_sEH_IC50_uM>
100.0

$$$$

SketchEl molfile

 20 20  0  0  0  0  0  0  0  0999 V2000
    0.0000    3.0967    0.0000 C   0  0  0  0  0  0  0  0  0  0  0  0
    0.9899    2.1067    0.0000 C   0  0  0  0  0  0  0  0  0  0  0  0
    2.2063    2.8000    0.0000 C   0  0  0  0  0  0  0  0  0  0  0  0
    3.6061    2.8000    0.0000 C   0  0  0  0  0  0  0  0  0  0  0  0
    2.6163    3.7901    0.0000 C   0  0  0  0  0  0  0  0  0  0  0  0
    1.3998    3.0967    0.0000 C   0  0  0  0  0  0  0  0  0  0  0  0
    4.8186    2.1000    0.0000 N   0  0  0  0  0  0  0  0  0  0  0  0
    6.0310    2.8000    0.0000 C   0  0  0  0  0  0  0  0  0  0  0  0
    7.2434    2.1000    0.0000 C   0  0  0  0  0  0  0  0  0  0  0  0
    8.4559    2.8000    0.0000 N   0  0  0  0  0  0  0  0  0  0  0  0
    9.6683    2.1000    0.0000 C   0  0  0  0  0  0  0  0  0  0  0  0
   10.8807    2.8000    0.0000 C   0  0  0  0  0  0  0  0  0  0  0  0
    6.0310    4.2000    0.0000 O   0  0  0  0  0  0  0  0  0  0  0  0
    7.2434    0.7000    0.0000 O   0  0  0  0  0  0  0  0  0  0  0  0
   12.0932    2.1000    0.0000 O   0  0  0  0  0  0  0  0  0  0  0  0
   13.3056    2.8000    0.0000 C   0  0  0  0  0  0  0  0  0  0  0  0
   10.8807    4.2000    0.0000 O   0  0  0  0  0  0  0  0  0  0  0  0
    9.6683    0.7000    0.0000 C   0  0  0  0  0  0  0  0  0  0  0  0
   10.8807    0.0000    0.0000 C   0  0  0  0  0  0  0  0  0  0  0  0
    8.4559    0.0000    0.0000 C   0  0  0  0  0  0  0  0  0  0  0  0
  1  2  1  0  0  0  0
  2  3  1  0  0  0  0
  3  4  1  0  0  0  0
  4  5  1  0  0  0  0
  5  6  1  0  0  0  0
  6  1  1  0  0  0  0
  7  4  1  0  0  0  0
  8  7  1  0  0  0  0
  9  8  1  0  0  0  0
 10  9  1  0  0  0  0
 11 10  1  0  0  0  0
 12 11  1  0  0  0  0
  8 13  2  0  0  0  0
  9 14  2  0  0  0  0
 12 15  1  0  0  0  0
 15 16  1  0  0  0  0
 12 17  2  0  0  0  0
 11 18  1  0  0  0  0
 18 19  1  0  0  0  0
 18 20  1  0  0  0  0
M  END
> <Molecule Name>
930

> <CDD Number>
CDD-16199

> <Human_sEH_IC50_uM>
100.0

> <Mouse_sEH_IC50_uM>
100.0

$$$$

SketchEl molfile

 23 24  0  0  0  0  0  0  0  0999 V2000
    0.0000    4.7801    0.0000 C   0  0  0  0  0  0  0  0  0  0  0  0
    0.9899    3.7901    0.0000 C   0  0  0  0  0  0  0  0  0  0  0  0
    2.2063    4.4834    0.0000 C   0  0  0  0  0  0  0  0  0  0  0  0
    3.6061    4.4834    0.0000 C   0  0  0  0  0  0  0  0  0  0  0  0
    2.6163    5.4735    0.0000 C   0  0  0  0  0  0  0  0  0  0  0  0
    1.3998    4.7801    0.0000 C   0  0  0  0  0  0  0  0  0  0  0  0
    4.8186    3.7834    0.0000 N   0  0  0  0  0  0  0  0  0  0  0  0
    6.0310    4.4834    0.0000 C   0  0  0  0  0  0  0  0  0  0  0  0
    7.2434    3.7834    0.0000 C   0  0  0  0  0  0  0  0  0  0  0  0
    8.4559    4.4834    0.0000 N   0  0  0  0  0  0  0  0  0  0  0  0
    9.6683    3.7834    0.0000 C   0  0  0  0  0  0  0  0  0  0  0  0
   10.8807    4.4834    0.0000 C   0  0  0  0  0  0  0  0  0  0  0  0
    6.0310    5.8834    0.0000 O   0  0  0  0  0  0  0  0  0  0  0  0
    7.2434    2.3834    0.0000 O   0  0  0  0  0  0  0  0  0  0  0  0
   12.0932    3.7834    0.0000 O   0  0  0  0  0  0  0  0  0  0  0  0
   13.3056    4.4834    0.0000 C   0  0  0  0  0  0  0  0  0  0  0  0
   10.8807    5.8834    0.0000 O   0  0  0  0  0  0  0  0  0  0  0  0
    9.6683    2.3834    0.0000 C   0  0  0  0  0  0  0  0  0  0  0  0
   10.8807    1.6834    0.0000 C   0  0  0  0  0  0  0  0  0  0  0  0
   11.0271    0.2911    0.0000 C   0  0  0  0  0  0  0  0  0  0  0  0
   12.3965    0.0000    0.0000 N   0  0  0  0  0  0  0  0  0  0  0  0
   13.0965    1.2124    0.0000 C   0  0  0  0  0  0  0  0  0  0  0  0
   12.1597    2.2528    0.0000 N   0  0  0  0  0  0  0  0  0  0  0  0
  1  2  1  0  0  0  0
  2  3  1  0  0  0  0
  3  4  1  0  0  0  0
  4  5  1  0  0  0  0
  5  6  1  0  0  0  0
  6  1  1  0  0  0  0
  7  4  1  0  0  0  0
  8  7  1  0  0  0  0
  9  8  1  0  0  0  0
 10  9  1  0  0  0  0
 11 10  1  0  0  0  0
 12 11  1  0  0  0  0
  8 13  2  0  0  0  0
  9 14  2  0  0  0  0
 12 15  1  0  0  0  0
 15 16  1  0  0  0  0
 12 17  2  0  0  0  0
 11 18  1  0  0  0  0
 18 19  1  0  0  0  0
 19 20  2  0  0  0  0
 20 21  1  0  0  0  0
 21 22  2  0  0  0  0
 22 23  1  0  0  0  0
 23 19  1  0  0  0  0
M  END
> <Molecule Name>
929

> <CDD Number>
CDD-16198

> <Human_sEH_IC50_uM>
100.0

> <Mouse_sEH_IC50_uM>
100.0

$$$$

SketchEl molfile

 24 25  0  0  0  0  0  0  0  0999 V2000
    0.0000    5.1967    0.0000 C   0  0  0  0  0  0  0  0  0  0  0  0
    0.9899    4.2067    0.0000 C   0  0  0  0  0  0  0  0  0  0  0  0
    2.2063    4.9000    0.0000 C   0  0  0  0  0  0  0  0  0  0  0  0
    3.6061    4.9000    0.0000 C   0  0  0  0  0  0  0  0  0  0  0  0
    2.6163    5.8901    0.0000 C   0  0  0  0  0  0  0  0  0  0  0  0
    1.3998    5.1967    0.0000 C   0  0  0  0  0  0  0  0  0  0  0  0
    4.8186    4.2000    0.0000 N   0  0  0  0  0  0  0  0  0  0  0  0
    6.0310    4.9000    0.0000 C   0  0  0  0  0  0  0  0  0  0  0  0
    7.2434    4.2000    0.0000 C   0  0  0  0  0  0  0  0  0  0  0  0
    8.4559    4.9000    0.0000 N   0  0  0  0  0  0  0  0  0  0  0  0
    9.6683    4.2000    0.0000 C   0  0  0  0  0  0  0  0  0  0  0  0
   10.8807    4.9000    0.0000 C   0  0  0  0  0  0  0  0  0  0  0  0
    6.0310    6.3000    0.0000 O   0  0  0  0  0  0  0  0  0  0  0  0
    7.2434    2.8000    0.0000 O   0  0  0  0  0  0  0  0  0  0  0  0
   12.0932    4.2000    0.0000 O   0  0  0  0  0  0  0  0  0  0  0  0
   13.3056    4.9000    0.0000 C   0  0  0  0  0  0  0  0  0  0  0  0
   10.8807    6.3000    0.0000 O   0  0  0  0  0  0  0  0  0  0  0  0
    9.6683    2.8000    0.0000 C   0  0  0  0  0  0  0  0  0  0  0  0
   10.8807    2.1000    0.0000 C   0  0  0  0  0  0  0  0  0  0  0  0
   10.8807    0.7000    0.0000 C   0  0  0  0  0  0  0  0  0  0  0  0
   12.0932    0.0000    0.0000 C   0  0  0  0  0  0  0  0  0  0  0  0
   13.3056    0.7000    0.0000 C   0  0  0  0  0  0  0  0  0  0  0  0
   13.3056    2.1000    0.0000 C   0  0  0  0  0  0  0  0  0  0  0  0
   12.0932    2.8000    0.0000 C   0  0  0  0  0  0  0  0  0  0  0  0
  1  2  1  0  0  0  0
  2  3  1  0  0  0  0
  3  4  1  0  0  0  0
  4  5  1  0  0  0  0
  5  6  1  0  0  0  0
  6  1  1  0  0  0  0
  7  4  1  0  0  0  0
  8  7  1  0  0  0  0
  9  8  1  0  0  0  0
 10  9  1  0  0  0  0
 11 10  1  0  0  0  0
 12 11  1  0  0  0  0
  8 13  2  0  0  0  0
  9 14  2  0  0  0  0
 12 15  1  0  0  0  0
 15 16  1  0  0  0  0
 12 17  2  0  0  0  0
 11 18  1  0  0  0  0
 18 19  1  0  0  0  0
 19 20  2  0  0  0  0
 20 21  1  0  0  0  0
 21 22  2  0  0  0  0
 22 23  1  0  0  0  0
 23 24  2  0  0  0  0
 24 19  1  0  0  0  0
M  END
> <Molecule Name>
928

> <CDD Number>
CDD-16197

> <Human_sEH_IC50_uM>
100.0

> <Mouse_sEH_IC50_uM>
100.0

$$$$

SketchEl molfile

 19 20  0  0  0  0  0  0  0  0999 V2000
    0.0000    2.3967    0.0000 C   0  0  0  0  0  0  0  0  0  0  0  0
    0.9899    1.4067    0.0000 C   0  0  0  0  0  0  0  0  0  0  0  0
    2.2063    2.1000    0.0000 C   0  0  0  0  0  0  0  0  0  0  0  0
    3.6061    2.1000    0.0000 C   0  0  0  0  0  0  0  0  0  0  0  0
    2.6163    3.0901    0.0000 C   0  0  0  0  0  0  0  0  0  0  0  0
    1.3998    2.3967    0.0000 C   0  0  0  0  0  0  0  0  0  0  0  0
    4.8186    1.4000    0.0000 N   0  0  0  0  0  0  0  0  0  0  0  0
    6.0310    2.1000    0.0000 C   0  0  0  0  0  0  0  0  0  0  0  0
    6.0310    3.5000    0.0000 O   0  0  0  0  0  0  0  0  0  0  0  0
    7.2434    1.4000    0.0000 C   0  0  0  0  0  0  0  0  0  0  0  0
    7.2434    0.0000    0.0000 O   0  0  0  0  0  0  0  0  0  0  0  0
    8.4559    2.1000    0.0000 N   0  0  0  0  0  0  0  0  0  0  0  0
    9.6683    1.4000    0.0000 C   0  0  0  0  0  0  0  0  0  0  0  0
   10.8807    2.1000    0.0000 C   0  0  0  0  0  0  0  0  0  0  0  0
   12.0932    1.4000    0.0000 C   0  0  0  0  0  0  0  0  0  0  0  0
   13.3056    2.1000    0.0000 C   0  0  0  0  0  0  0  0  0  0  0  0
   13.3056    3.5000    0.0000 C   0  0  0  0  0  0  0  0  0  0  0  0
   12.0932    4.2000    0.0000 C   0  0  0  0  0  0  0  0  0  0  0  0
   10.8807    3.5000    0.0000 C   0  0  0  0  0  0  0  0  0  0  0  0
  1  2  1  0  0  0  0
  2  3  1  0  0  0  0
  3  4  1  0  0  0  0
  4  5  1  0  0  0  0
  5  6  1  0  0  0  0
  6  1  1  0  0  0  0
  4  7  1  0  0  0  0
  7  8  1  0  0  0  0
  8  9  2  0  0  0  0
  8 10  1  0  0  0  0
 10 11  2  0  0  0  0
 10 12  1  0  0  0  0
 12 13  1  0  0  0  0
 13 14  1  0  0  0  0
 14 15  2  0  0  0  0
 15 16  1  0  0  0  0
 16 17  2  0  0  0  0
 17 18  1  0  0  0  0
 18 19  2  0  0  0  0
 19 14  1  0  0  0  0
M  END
> <Molecule Name>
927

> <CDD Number>
CDD-16195

> <Human_sEH_IC50_uM>
100.0

> <Mouse_sEH_IC50_uM>
100.0

$$$$

SketchEl molfile

 16 16  0  0  0  0  0  0  0  0999 V2000
    0.0000    2.3967    0.0000 C   0  0  0  0  0  0  0  0  0  0  0  0
    0.9899    1.4067    0.0000 C   0  0  0  0  0  0  0  0  0  0  0  0
    2.2063    2.1000    0.0000 C   0  0  0  0  0  0  0  0  0  0  0  0
    3.6061    2.1000    0.0000 C   0  0  0  0  0  0  0  0  0  0  0  0
    2.6163    3.0901    0.0000 C   0  0  0  0  0  0  0  0  0  0  0  0
    1.3998    2.3967    0.0000 C   0  0  0  0  0  0  0  0  0  0  0  0
    4.8186    1.4000    0.0000 N   0  0  0  0  0  0  0  0  0  0  0  0
    6.0310    2.1000    0.0000 C   0  0  0  0  0  0  0  0  0  0  0  0
    7.2434    1.4000    0.0000 C   0  0  0  0  0  0  0  0  0  0  0  0
    8.4559    2.1000    0.0000 N   0  0  0  0  0  0  0  0  0  0  0  0
    9.6683    1.4000    0.0000 C   0  0  0  0  0  0  0  0  0  0  0  0
   10.8807    2.1000    0.0000 C   0  0  0  0  0  0  0  0  0  0  0  0
    6.0310    3.5000    0.0000 O   0  0  0  0  0  0  0  0  0  0  0  0
    7.2434    0.0000    0.0000 O   0  0  0  0  0  0  0  0  0  0  0  0
   12.0932    1.4000    0.0000 C   0  0  0  0  0  0  0  0  0  0  0  0
   13.3056    2.1000    0.0000 C   0  0  0  0  0  0  0  0  0  0  0  0
  1  2  1  0  0  0  0
  2  3  1  0  0  0  0
  3  4  1  0  0  0  0
  4  5  1  0  0  0  0
  5  6  1  0  0  0  0
  6  1  1  0  0  0  0
  7  4  1  0  0  0  0
  8  7  1  0  0  0  0
  9  8  1  0  0  0  0
 10  9  1  0  0  0  0
 11 10  1  0  0  0  0
 12 11  1  0  0  0  0
  8 13  2  0  0  0  0
  9 14  2  0  0  0  0
 12 15  1  0  0  0  0
 15 16  1  0  0  0  0
M  END
> <Molecule Name>
926

> <CDD Number>
CDD-16196

> <Human_sEH_IC50_uM>
100.0

> <Mouse_sEH_IC50_uM>
100.0

$$$$

SketchEl molfile

 21 22  0  0  0  0  0  0  0  0999 V2000
    0.0000    3.0967    0.0000 C   0  0  0  0  0  0  0  0  0  0  0  0
    0.9899    2.1067    0.0000 C   0  0  0  0  0  0  0  0  0  0  0  0
    2.2063    2.8000    0.0000 C   0  0  0  0  0  0  0  0  0  0  0  0
    3.6061    2.8000    0.0000 C   0  0  0  0  0  0  0  0  0  0  0  0
    2.6163    3.7901    0.0000 C   0  0  0  0  0  0  0  0  0  0  0  0
    1.3998    3.0967    0.0000 C   0  0  0  0  0  0  0  0  0  0  0  0
    4.8186    2.1000    0.0000 N   0  0  0  0  0  0  0  0  0  0  0  0
    6.0310    2.8000    0.0000 C   0  0  0  0  0  0  0  0  0  0  0  0
    7.2434    2.1000    0.0000 C   0  0  0  0  0  0  0  0  0  0  0  0
    6.0310    4.2000    0.0000 O   0  0  0  0  0  0  0  0  0  0  0  0
    8.4559    2.8000    0.0000 N   0  0  0  0  0  0  0  0  0  0  0  0
    7.2434    0.7000    0.0000 O   0  0  0  0  0  0  0  0  0  0  0  0
    9.6683    2.1000    0.0000 C   0  0  0  0  0  0  0  0  0  0  0  0
    9.6683    0.7000    0.0000 C   0  0  0  0  0  0  0  0  0  0  0  0
   10.8807    0.0000    0.0000 C   0  0  0  0  0  0  0  0  0  0  0  0
   12.0932    0.7000    0.0000 C   0  0  0  0  0  0  0  0  0  0  0  0
   12.0932    2.1000    0.0000 C   0  0  0  0  0  0  0  0  0  0  0  0
   10.8807    2.8000    0.0000 C   0  0  0  0  0  0  0  0  0  0  0  0
   13.3056    2.8000    0.0000 N   0  3  0  0  0  0  0  0  0  0  0  0
   13.3056    4.2000    0.0000 O   0  0  0  0  0  0  0  0  0  0  0  0
   14.5181    2.1000    0.0000 O   0  5  0  0  0  0  0  0  0  0  0  0
  1  2  1  0  0  0  0
  2  3  1  0  0  0  0
  3  4  1  0  0  0  0
  4  5  1  0  0  0  0
  5  6  1  0  0  0  0
  6  1  1  0  0  0  0
  4  7  1  0  0  0  0
  7  8  1  0  0  0  0
  8  9  1  0  0  0  0
  8 10  2  0  0  0  0
  9 11  1  0  0  0  0
  9 12  2  0  0  0  0
 11 13  1  0  0  0  0
 13 14  2  0  0  0  0
 14 15  1  0  0  0  0
 15 16  2  0  0  0  0
 16 17  1  0  0  0  0
 17 18  2  0  0  0  0
 18 13  1  0  0  0  0
 17 19  1  0  0  0  0
 19 20  2  0  0  0  0
 19 21  1  0  0  0  0
M  CHG  2  19   1  21  -1
M  END
> <Molecule Name>
925

> <CDD Number>
CDD-16194

> <Human_sEH_IC50_uM>
100.0

> <Mouse_sEH_IC50_uM>
100.0

$$$$

SketchEl molfile

 14 13  0  0  0  0  0  0  0  0999 V2000
    1.2124    2.1000    0.0000 C   0  0  0  0  0  0  0  0  0  0  0  0
    2.4249    1.4000    0.0000 C   0  0  0  0  0  0  0  0  0  0  0  0
    3.6373    2.1000    0.0000 C   0  0  0  0  0  0  0  0  0  0  0  0
    4.8497    1.4000    0.0000 N   0  0  0  0  0  0  0  0  0  0  0  0
    6.0622    2.1000    0.0000 C   0  0  0  0  0  0  0  0  0  0  0  0
    7.2746    1.4000    0.0000 C   0  0  0  0  0  0  0  0  0  0  0  0
    8.4870    2.1000    0.0000 N   0  0  0  0  0  0  0  0  0  0  0  0
    9.6995    1.4000    0.0000 C   0  0  0  0  0  0  0  0  0  0  0  0
    0.0000    1.4000    0.0000 C   0  0  0  0  0  0  0  0  0  0  0  0
    6.0622    3.5000    0.0000 O   0  0  0  0  0  0  0  0  0  0  0  0
    7.2746    0.0000    0.0000 O   0  0  0  0  0  0  0  0  0  0  0  0
   10.9119    2.1000    0.0000 C   0  0  0  0  0  0  0  0  0  0  0  0
   12.1244    1.4000    0.0000 C   0  0  0  0  0  0  0  0  0  0  0  0
   13.3368    2.1000    0.0000 C   0  0  0  0  0  0  0  0  0  0  0  0
  2  1  1  0  0  0  0
  3  2  1  0  0  0  0
  4  3  1  0  0  0  0
  5  4  1  0  0  0  0
  6  5  1  0  0  0  0
  7  6  1  0  0  0  0
  8  7  1  0  0  0  0
  1  9  1  0  0  0  0
  5 10  2  0  0  0  0
  6 11  2  0  0  0  0
  8 12  1  0  0  0  0
 12 13  1  0  0  0  0
 13 14  1  0  0  0  0
M  END
> <Molecule Name>
924

> <CDD Number>
CDD-16193

> <Human_sEH_IC50_uM>
100.0

> <Mouse_sEH_IC50_uM>
100.0

$$$$

SketchEl molfile

 18 19  0  0  0  0  0  0  0  0999 V2000
    0.7000    2.1000    0.0000 C   0  0  0  0  0  0  0  0  0  0  0  0
    0.0000    0.8875    0.0000 O   0  0  0  0  0  0  0  0  0  0  0  0
    1.3461    1.2723    0.0000 C   0  0  0  0  0  0  0  0  0  0  0  0
    2.7003    0.8875    0.0000 C   0  0  0  0  0  0  0  0  0  0  0  0
    3.4005    2.1000    0.0000 C   0  0  0  0  0  0  0  0  0  0  0  0
    2.0543    1.7154    0.0000 C   0  0  0  0  0  0  0  0  0  0  0  0
    4.6129    1.4000    0.0000 N   0  0  0  0  0  0  0  0  0  0  0  0
    5.8253    2.1000    0.0000 C   0  0  0  0  0  0  0  0  0  0  0  0
    5.8253    3.4999    0.0000 O   0  0  0  0  0  0  0  0  0  0  0  0
    7.0377    1.4000    0.0000 C   0  0  0  0  0  0  0  0  0  0  0  0
    7.0377    0.0000    0.0000 O   0  0  0  0  0  0  0  0  0  0  0  0
    8.2501    2.1000    0.0000 N   0  0  0  0  0  0  0  0  0  0  0  0
    9.4625    1.4000    0.0000 C   0  0  0  0  0  0  0  0  0  0  0  0
    9.4625    0.0000    0.0000 C   0  0  0  0  0  0  0  0  0  0  0  0
   10.4359    1.0062    0.0000 C   0  0  0  0  0  0  0  0  0  0  0  0
   11.7862    1.4000    0.0000 O   0  0  0  0  0  0  0  0  0  0  0  0
   11.7862    2.8000    0.0000 C   0  0  0  0  0  0  0  0  0  0  0  0
   10.8127    1.7938    0.0000 C   0  0  0  0  0  0  0  0  0  0  0  0
  1  2  1  0  0  0  0
  2  3  1  0  0  0  0
  3  4  1  0  0  0  0
  4  5  1  0  0  0  0
  5  6  1  0  0  0  0
  6  1  1  0  0  0  0
  5  7  1  0  0  0  0
  7  8  1  0  0  0  0
  8  9  2  0  0  0  0
  8 10  1  0  0  0  0
 10 11  2  0  0  0  0
 10 12  1  0  0  0  0
 12 13  1  0  0  0  0
 13 14  1  0  0  0  0
 14 15  1  0  0  0  0
 15 16  1  0  0  0  0
 16 17  1  0  0  0  0
 17 18  1  0  0  0  0
 18 13  1  0  0  0  0
M  END
> <Molecule Name>
923

> <CDD Number>
CDD-16192

> <Human_sEH_IC50_uM>
100.0

> <Mouse_sEH_IC50_uM>
100.0

$$$$

SketchEl molfile

 20 21  0  0  0  0  0  0  0  0999 V2000
    1.9124    2.1000    0.0000 C   0  0  0  0  0  0  0  0  0  0  0  0
    1.2124    0.8876    0.0000 C   0  0  0  0  0  0  0  0  0  0  0  0
    2.5586    1.2723    0.0000 C   0  0  0  0  0  0  0  0  0  0  0  0
    3.9128    0.8876    0.0000 C   0  0  0  0  0  0  0  0  0  0  0  0
    4.6130    2.1000    0.0000 C   0  0  0  0  0  0  0  0  0  0  0  0
    3.2668    1.7154    0.0000 C   0  0  0  0  0  0  0  0  0  0  0  0
    5.8254    1.4000    0.0000 N   0  0  0  0  0  0  0  0  0  0  0  0
    7.0379    2.1000    0.0000 C   0  0  0  0  0  0  0  0  0  0  0  0
    7.0379    3.5000    0.0000 O   0  0  0  0  0  0  0  0  0  0  0  0
    8.2503    1.4000    0.0000 C   0  0  0  0  0  0  0  0  0  0  0  0
    8.2503    0.0000    0.0000 O   0  0  0  0  0  0  0  0  0  0  0  0
    9.4627    2.1000    0.0000 N   0  0  0  0  0  0  0  0  0  0  0  0
   10.6752    1.4000    0.0000 C   0  0  0  0  0  0  0  0  0  0  0  0
   10.6752    0.0000    0.0000 C   0  0  0  0  0  0  0  0  0  0  0  0
   11.6486    1.0062    0.0000 C   0  0  0  0  0  0  0  0  0  0  0  0
   12.9989    1.4000    0.0000 C   0  0  0  0  0  0  0  0  0  0  0  0
   12.9989    2.8001    0.0000 C   0  0  0  0  0  0  0  0  0  0  0  0
   12.0253    1.7939    0.0000 C   0  0  0  0  0  0  0  0  0  0  0  0
    0.0000    0.1876    0.0000 C   0  0  0  0  0  0  0  0  0  0  0  0
   14.2113    0.7000    0.0000 C   0  0  0  0  0  0  0  0  0  0  0  0
  1  2  1  0  0  0  0
  2  3  1  0  0  0  0
  3  4  1  0  0  0  0
  4  5  1  0  0  0  0
  5  6  1  0  0  0  0
  6  1  1  0  0  0  0
  5  7  1  0  0  0  0
  7  8  1  0  0  0  0
  8  9  2  0  0  0  0
  8 10  1  0  0  0  0
 10 11  2  0  0  0  0
 10 12  1  0  0  0  0
 12 13  1  0  0  0  0
 13 14  1  0  0  0  0
 14 15  1  0  0  0  0
 15 16  1  0  0  0  0
 16 17  1  0  0  0  0
 17 18  1  0  0  0  0
 18 13  1  0  0  0  0
  2 19  1  0  0  0  0
 16 20  1  0  0  0  0
M  END
> <Molecule Name>
922

> <CDD Number>
CDD-16191

> <Human_sEH_IC50_uM>
100.0

> <Mouse_sEH_IC50_uM>
100.0

$$$$

SketchEl molfile

 18 19  0  0  0  0  0  0  0  0999 V2000
    0.7000    2.1000    0.0000 C   0  0  0  0  0  0  0  0  0  0  0  0
    0.0000    0.8875    0.0000 C   0  0  0  0  0  0  0  0  0  0  0  0
    1.3461    1.2723    0.0000 C   0  0  0  0  0  0  0  0  0  0  0  0
    2.7003    0.8875    0.0000 C   0  0  0  0  0  0  0  0  0  0  0  0
    3.4005    2.1000    0.0000 C   0  0  0  0  0  0  0  0  0  0  0  0
    2.0543    1.7154    0.0000 C   0  0  0  0  0  0  0  0  0  0  0  0
    4.6129    1.4000    0.0000 N   0  0  0  0  0  0  0  0  0  0  0  0
    5.8253    2.1000    0.0000 C   0  0  0  0  0  0  0  0  0  0  0  0
    5.8253    3.4999    0.0000 O   0  0  0  0  0  0  0  0  0  0  0  0
    7.0377    1.4000    0.0000 C   0  0  0  0  0  0  0  0  0  0  0  0
    7.0377    0.0000    0.0000 O   0  0  0  0  0  0  0  0  0  0  0  0
    8.2501    2.1000    0.0000 N   0  0  0  0  0  0  0  0  0  0  0  0
    9.4625    1.4000    0.0000 C   0  0  0  0  0  0  0  0  0  0  0  0
    9.4625    0.0000    0.0000 C   0  0  0  0  0  0  0  0  0  0  0  0
   10.4359    1.0062    0.0000 C   0  0  0  0  0  0  0  0  0  0  0  0
   11.7862    1.4000    0.0000 C   0  0  0  0  0  0  0  0  0  0  0  0
   11.7862    2.8000    0.0000 C   0  0  0  0  0  0  0  0  0  0  0  0
   10.8127    1.7938    0.0000 C   0  0  0  0  0  0  0  0  0  0  0  0
  1  2  1  0  0  0  0
  2  3  1  0  0  0  0
  3  4  1  0  0  0  0
  4  5  1  0  0  0  0
  5  6  1  0  0  0  0
  6  1  1  0  0  0  0
  5  7  1  0  0  0  0
  7  8  1  0  0  0  0
  8  9  2  0  0  0  0
  8 10  1  0  0  0  0
 10 11  2  0  0  0  0
 10 12  1  0  0  0  0
 12 13  1  0  0  0  0
 13 14  1  0  0  0  0
 14 15  1  0  0  0  0
 15 16  1  0  0  0  0
 16 17  1  0  0  0  0
 17 18  1  0  0  0  0
 18 13  1  0  0  0  0
M  END
> <Molecule Name>
921

> <CDD Number>
CDD-16190

> <Human_sEH_IC50_uM>
100.0

> <Mouse_sEH_IC50_uM>
100.0

$$$$

SketchEl molfile

 22 24  0  0  0  0  0  0  0  0999 V2000
    0.0000    5.9316    0.0000 C   0  0  0  0  0  0  0  0  0  0  0  0
    0.0000    4.5316    0.0000 C   0  0  0  0  0  0  0  0  0  0  0  0
    1.2124    3.8316    0.0000 C   0  0  0  0  0  0  0  0  0  0  0  0
    2.4249    4.5316    0.0000 C   0  0  0  0  0  0  0  0  0  0  0  0
    2.4249    5.9316    0.0000 C   0  0  0  0  0  0  0  0  0  0  0  0
    1.2124    6.6316    0.0000 C   0  0  0  0  0  0  0  0  0  0  0  0
    3.6373    6.6316    0.0000 C   0  0  0  0  0  0  0  0  0  0  0  0
    4.9163    6.0622    0.0000 C   0  0  0  0  0  0  0  0  0  0  0  0
    5.8531    7.1026    0.0000 C   0  0  0  0  0  0  0  0  0  0  0  0
    5.1531    8.3150    0.0000 O   0  0  0  0  0  0  0  0  0  0  0  0
    3.7836    8.0239    0.0000 C   0  0  0  0  0  0  0  0  0  0  0  0
    2.5712    8.7239    0.0000 O   0  0  0  0  0  0  0  0  0  0  0  0
    5.6163    4.8497    0.0000 C   0  0  0  0  0  0  0  0  0  0  0  0
    4.9163    3.6373    0.0000 C   0  0  0  0  0  0  0  0  0  0  0  0
    5.6163    2.4249    0.0000 C   0  0  0  0  0  0  0  0  0  0  0  0
    7.0163    2.4249    0.0000 C   0  0  0  0  0  0  0  0  0  0  0  0
    7.7163    3.6373    0.0000 C   0  0  0  0  0  0  0  0  0  0  0  0
    7.0163    4.8497    0.0000 C   0  0  0  0  0  0  0  0  0  0  0  0
    7.7163    1.2124    0.0000 S   0  0  0  0  0  0  0  0  0  0  0  0
    8.4163    0.0000    0.0000 C   0  0  0  0  0  0  0  0  0  0  0  0
    6.5038    0.5124    0.0000 O   0  0  0  0  0  0  0  0  0  0  0  0
    8.9287    1.9124    0.0000 O   0  0  0  0  0  0  0  0  0  0  0  0
  1  2  2  0  0  0  0
  2  3  1  0  0  0  0
  3  4  2  0  0  0  0
  4  5  1  0  0  0  0
  5  6  2  0  0  0  0
  6  1  1  0  0  0  0
  5  7  1  0  0  0  0
  7  8  2  0  0  0  0
  8  9  1  0  0  0  0
  9 10  1  0  0  0  0
 10 11  1  0  0  0  0
 11  7  1  0  0  0  0
 11 12  2  0  0  0  0
  8 13  1  0  0  0  0
 13 14  2  0  0  0  0
 14 15  1  0  0  0  0
 15 16  2  0  0  0  0
 16 17  1  0  0  0  0
 17 18  2  0  0  0  0
 18 13  1  0  0  0  0
 16 19  1  0  0  0  0
 19 20  1  0  0  0  0
 19 21  2  0  0  0  0
 19 22  2  0  0  0  0
M  END
> <Molecule Name>
920

> <CDD Number>
CDD-614

> <Human_sEH_IC50_uM>
500.0

> <Mouse_sEH_IC50_uM>
500.0

$$$$

SketchEl molfile

 11 11  0  0  0  0  0  0  0  0999 V2000
    1.2124    2.1000    0.0000 C   0  0  0  0  0  0  0  0  0  0  0  0
    1.2124    0.7000    0.0000 C   0  0  0  0  0  0  0  0  0  0  0  0
    2.4249    0.0000    0.0000 C   0  0  0  0  0  0  0  0  0  0  0  0
    3.6373    0.7000    0.0000 C   0  0  0  0  0  0  0  0  0  0  0  0
    3.6373    2.1000    0.0000 C   0  0  0  0  0  0  0  0  0  0  0  0
    2.4249    2.8000    0.0000 C   0  0  0  0  0  0  0  0  0  0  0  0
    0.0000    0.0000    0.0000 O   0  0  0  0  0  0  0  0  0  0  0  0
    4.8497    2.8000    0.0000 N   0  0  0  0  0  0  0  0  0  0  0  0
    6.0622    2.1000    0.0000 C   0  0  0  0  0  0  0  0  0  0  0  0
    7.2746    2.8000    0.0000 C   0  0  0  0  0  0  0  0  0  0  0  0
    6.0622    0.7000    0.0000 O   0  0  0  0  0  0  0  0  0  0  0  0
  1  2  2  0  0  0  0
  2  3  1  0  0  0  0
  3  4  2  0  0  0  0
  4  5  1  0  0  0  0
  5  6  2  0  0  0  0
  6  1  1  0  0  0  0
  2  7  1  0  0  0  0
  5  8  1  0  0  0  0
  8  9  1  0  0  0  0
  9 10  1  0  0  0  0
  9 11  2  0  0  0  0
M  END
> <Molecule Name>
919

> <CDD Number>
CDD-14

> <Human_sEH_IC50_uM>
500.0

> <Mouse_sEH_IC50_uM>
500.0

$$$$

SketchEl molfile

 15 15  0  0  0  0  0  0  0  0999 V2000
    0.0000    0.0000    0.0000 C   0  0  0  0  0  0  0  0  0  0  0  0
    1.2124    0.7000    0.0000 C   0  0  0  0  0  0  0  0  0  0  0  0
    2.4249    0.0000    0.0000 C   0  0  0  0  0  0  0  0  0  0  0  0
    3.6373    0.7000    0.0000 C   0  0  0  0  0  0  0  0  0  0  0  0
    1.2124    2.1000    0.0000 C   0  0  0  0  0  0  0  0  0  0  0  0
    4.8497    0.0000    0.0000 C   0  0  0  0  0  0  0  0  0  0  0  0
    6.0622    0.7000    0.0000 C   0  0  0  0  0  0  0  0  0  0  0  0
    6.0622    2.1000    0.0000 C   0  0  0  0  0  0  0  0  0  0  0  0
    4.8497    2.8000    0.0000 C   0  0  0  0  0  0  0  0  0  0  0  0
    3.6373    2.1000    0.0000 C   0  0  0  0  0  0  0  0  0  0  0  0
    7.2746    2.8000    0.0000 C   0  0  0  0  0  0  0  0  0  0  0  0
    8.4870    2.1000    0.0000 C   0  0  0  0  0  0  0  0  0  0  0  0
    9.6995    2.8000    0.0000 O   0  0  0  0  0  0  0  0  0  0  0  0
    8.4870    0.7000    0.0000 O   0  0  0  0  0  0  0  0  0  0  0  0
    7.2746    4.2000    0.0000 C   0  0  0  0  0  0  0  0  0  0  0  0
  1  2  1  0  0  0  0
  2  3  1  0  0  0  0
  3  4  1  0  0  0  0
  2  5  1  0  0  0  0
  4  6  2  0  0  0  0
  6  7  1  0  0  0  0
  7  8  2  0  0  0  0
  8  9  1  0  0  0  0
  9 10  2  0  0  0  0
 10  4  1  0  0  0  0
  8 11  1  0  0  0  0
 11 12  1  0  0  0  0
 12 13  1  0  0  0  0
 12 14  2  0  0  0  0
 11 15  1  0  0  0  0
M  END
> <Molecule Name>
918

> <CDD Number>
CDD-334

> <Human_sEH_IC50_uM>
500.0

> <Mouse_sEH_IC50_uM>
500.0

$$$$

SketchEl molfile

 10 10  0  0  0  0  0  0  0  0999 V2000
    0.0000    2.1000    0.0000 C   0  0  0  0  0  0  0  0  0  0  0  0
    0.0000    0.7000    0.0000 C   0  0  0  0  0  0  0  0  0  0  0  0
    1.2124    0.0000    0.0000 C   0  0  0  0  0  0  0  0  0  0  0  0
    2.4249    0.7000    0.0000 C   0  0  0  0  0  0  0  0  0  0  0  0
    2.4249    2.1000    0.0000 C   0  0  0  0  0  0  0  0  0  0  0  0
    1.2124    2.8000    0.0000 C   0  0  0  0  0  0  0  0  0  0  0  0
    3.6373    0.0000    0.0000 O   0  0  0  0  0  0  0  0  0  0  0  0
    3.6373    2.8000    0.0000 C   0  0  0  0  0  0  0  0  0  0  0  0
    4.8497    2.1000    0.0000 O   0  0  0  0  0  0  0  0  0  0  0  0
    3.6373    4.2000    0.0000 O   0  0  0  0  0  0  0  0  0  0  0  0
  1  2  2  0  0  0  0
  2  3  1  0  0  0  0
  3  4  2  0  0  0  0
  4  5  1  0  0  0  0
  5  6  2  0  0  0  0
  6  1  1  0  0  0  0
  4  7  1  0  0  0  0
  5  8  1  0  0  0  0
  8  9  1  0  0  0  0
  8 10  2  0  0  0  0
M  END
> <Molecule Name>
917

> <CDD Number>
CDD-3427

> <Human_sEH_IC50_uM>
500.0

> <Mouse_sEH_IC50_uM>
500.0

$$$$

SketchEl molfile

 30 32  0  0  0  0  0  0  0  0999 V2000
    2.7836    3.0265    0.0000 C   0  0  0  0  0  0  0  0  0  0  0  0
    1.3836    3.0265    0.0000 C   0  0  0  0  0  0  0  0  0  0  0  0
    1.0130    1.6760    0.0000 C   0  0  0  0  0  0  0  0  0  0  0  0
    0.0000    0.7000    0.0000 C   0  0  0  0  0  0  0  0  0  0  0  0
    1.3836    0.7000    0.0000 C   0  0  0  0  0  0  0  0  0  0  0  0
    1.7500    2.0466    0.0000 C   0  0  0  0  0  0  0  0  0  0  0  0
    3.9941    2.3265    0.0000 C   0  0  0  0  0  0  0  0  0  0  0  0
    3.6319    0.9760    0.0000 C   0  0  0  0  0  0  0  0  0  0  0  0
    2.5941    0.0000    0.0000 C   0  0  0  0  0  0  0  0  0  0  0  0
    2.2235    0.9760    0.0000 C   0  0  0  0  0  0  0  0  0  0  0  0
    4.8424    0.2760    0.0000 N   0  0  0  0  0  0  0  0  0  0  0  0
    6.0529    0.9760    0.0000 C   0  0  0  0  0  0  0  0  0  0  0  0
    6.0529    2.3760    0.0000 O   0  0  0  0  0  0  0  0  0  0  0  0
    7.2635    0.2760    0.0000 N   0  0  0  0  0  0  0  0  0  0  0  0
    8.4743    0.9760    0.0000 C   0  0  0  0  0  0  0  0  0  0  0  0
    9.6848    0.2760    0.0000 C   0  0  0  0  0  0  0  0  0  0  0  0
   10.8954    0.9760    0.0000 C   0  0  0  0  0  0  0  0  0  0  0  0
   12.1059    0.2760    0.0000 C   0  0  0  0  0  0  0  0  0  0  0  0
   13.3164    0.9760    0.0000 C   0  0  0  0  0  0  0  0  0  0  0  0
   14.5288    0.2760    0.0000 O   0  0  0  0  0  0  0  0  0  0  0  0
   15.7413    0.9760    0.0000 C   0  0  0  0  0  0  0  0  0  0  0  0
   16.9537    0.2760    0.0000 C   0  0  0  0  0  0  0  0  0  0  0  0
   18.1661    0.9760    0.0000 C   0  0  0  0  0  0  0  0  0  0  0  0
   19.3786    0.2760    0.0000 C   0  0  0  0  0  0  0  0  0  0  0  0
   20.5910    0.9760    0.0000 C   0  0  0  0  0  0  0  0  0  0  0  0
   21.8035    0.2760    0.0000 C   0  0  0  0  0  0  0  0  0  0  0  0
   23.0159    0.9760    0.0000 C   0  0  0  0  0  0  0  0  0  0  0  0
   18.1661    2.3760    0.0000 C   0  0  0  0  0  0  0  0  0  0  0  0
   23.0159    2.3760    0.0000 C   0  0  0  0  0  0  0  0  0  0  0  0
   24.2283    0.2760    0.0000 C   0  0  0  0  0  0  0  0  0  0  0  0
  1  2  1  0  0  0  0
  2  3  1  0  0  0  0
  3  4  1  0  0  0  0
  4  5  1  0  0  0  0
  5  6  1  0  0  0  0
  1  6  1  0  0  0  0
  1  7  1  0  0  0  0
  7  8  1  0  0  0  0
  5  9  1  0  0  0  0
  8  9  1  0  0  0  0
  3 10  1  0  0  0  0
  8 10  1  0  0  0  0
  8 11  1  0  0  0  0
 11 12  1  0  0  0  0
 12 13  2  0  0  0  0
 12 14  1  0  0  0  0
 14 15  1  0  0  0  0
 15 16  1  0  0  0  0
 16 17  1  0  0  0  0
 17 18  1  0  0  0  0
 18 19  1  0  0  0  0
 19 20  1  0  0  0  0
 20 21  1  0  0  0  0
 21 22  1  0  0  0  0
 22 23  1  0  0  0  0
 23 24  1  0  0  0  0
 24 25  1  0  0  0  0
 25 26  1  0  0  0  0
 26 27  2  0  0  0  0
 23 28  1  0  0  0  0
 27 29  1  0  0  0  0
 27 30  1  0  0  0  0
M  END
> <Molecule Name>
915

> <CDD Number>
CDD-15623

> <Human_sEH_IC50_uM>
0.12

> <Mouse_sEH_IC50_uM>
0.05

$$$$

SketchEl molfile

 37 40  0  0  0  0  0  0  0  0999 V2000
    2.7836    4.1505    0.0000 C   0  0  0  0  0  0  0  0  0  0  0  0
    1.3836    4.1505    0.0000 C   0  0  0  0  0  0  0  0  0  0  0  0
    1.0130    2.8000    0.0000 C   0  0  0  0  0  0  0  0  0  0  0  0
    0.0000    1.8240    0.0000 C   0  0  0  0  0  0  0  0  0  0  0  0
    1.3836    1.8240    0.0000 C   0  0  0  0  0  0  0  0  0  0  0  0
    1.7500    3.1706    0.0000 C   0  0  0  0  0  0  0  0  0  0  0  0
    3.9941    3.4505    0.0000 C   0  0  0  0  0  0  0  0  0  0  0  0
    3.6319    2.1000    0.0000 C   0  0  0  0  0  0  0  0  0  0  0  0
    2.5941    1.1240    0.0000 C   0  0  0  0  0  0  0  0  0  0  0  0
    2.2235    2.1000    0.0000 C   0  0  0  0  0  0  0  0  0  0  0  0
    4.8424    1.4000    0.0000 N   0  0  0  0  0  0  0  0  0  0  0  0
    6.0529    2.1000    0.0000 C   0  0  0  0  0  0  0  0  0  0  0  0
    6.0529    3.5000    0.0000 O   0  0  0  0  0  0  0  0  0  0  0  0
    7.2635    1.4000    0.0000 N   0  0  0  0  0  0  0  0  0  0  0  0
    8.4743    2.1000    0.0000 C   0  0  0  0  0  0  0  0  0  0  0  0
    9.6848    1.4000    0.0000 C   0  0  0  0  0  0  0  0  0  0  0  0
   10.8954    2.1000    0.0000 C   0  0  0  0  0  0  0  0  0  0  0  0
   12.1059    1.4000    0.0000 C   0  0  0  0  0  0  0  0  0  0  0  0
   13.3164    2.1000    0.0000 C   0  0  0  0  0  0  0  0  0  0  0  0
   14.5288    1.4000    0.0000 C   0  0  0  0  0  0  0  0  0  0  0  0
   15.7413    2.1000    0.0000 C   0  0  0  0  0  0  0  0  0  0  0  0
   16.9537    1.4000    0.0000 C   0  0  0  0  0  0  0  0  0  0  0  0
   18.1661    2.1000    0.0000 C   0  0  0  0  0  0  0  0  0  0  0  0
   19.3786    1.4000    0.0000 C   0  0  0  0  0  0  0  0  0  0  0  0
   20.5910    2.1000    0.0000 C   0  0  0  0  0  0  0  0  0  0  0  0
   21.8035    1.4000    0.0000 C   0  0  0  0  0  0  0  0  0  0  0  0
   23.0159    2.1000    0.0000 N   0  0  0  0  0  0  0  0  0  0  0  0
   21.8035    0.0000    0.0000 O   0  0  0  0  0  0  0  0  0  0  0  0
   24.2283    1.4000    0.0000 S   0  0  0  0  0  0  0  0  0  0  0  0
   25.4408    2.1000    0.0000 C   0  0  0  0  0  0  0  0  0  0  0  0
   24.2283    0.0000    0.0000 O   0  0  0  0  0  0  0  0  0  0  0  0
   24.2283    2.8000    0.0000 O   0  0  0  0  0  0  0  0  0  0  0  0
   26.6532    1.4000    0.0000 C   0  0  0  0  0  0  0  0  0  0  0  0
   27.8656    2.1000    0.0000 C   0  0  0  0  0  0  0  0  0  0  0  0
   27.8656    3.5000    0.0000 C   0  0  0  0  0  0  0  0  0  0  0  0
   26.6532    4.2000    0.0000 C   0  0  0  0  0  0  0  0  0  0  0  0
   25.4408    3.5000    0.0000 C   0  0  0  0  0  0  0  0  0  0  0  0
  1  2  1  0  0  0  0
  2  3  1  0  0  0  0
  3  4  1  0  0  0  0
  4  5  1  0  0  0  0
  5  6  1  0  0  0  0
  1  6  1  0  0  0  0
  1  7  1  0  0  0  0
  7  8  1  0  0  0  0
  5  9  1  0  0  0  0
  8  9  1  0  0  0  0
  3 10  1  0  0  0  0
  8 10  1  0  0  0  0
  8 11  1  0  0  0  0
 11 12  1  0  0  0  0
 12 13  2  0  0  0  0
 12 14  1  0  0  0  0
 14 15  1  0  0  0  0
 15 16  1  0  0  0  0
 16 17  1  0  0  0  0
 17 18  1  0  0  0  0
 18 19  1  0  0  0  0
 19 20  1  0  0  0  0
 20 21  1  0  0  0  0
 21 22  1  0  0  0  0
 22 23  1  0  0  0  0
 23 24  1  0  0  0  0
 24 25  1  0  0  0  0
 25 26  1  0  0  0  0
 26 27  1  0  0  0  0
 26 28  2  0  0  0  0
 27 29  1  0  0  0  0
 29 30  1  0  0  0  0
 29 31  2  0  0  0  0
 29 32  2  0  0  0  0
 30 33  2  0  0  0  0
 33 34  1  0  0  0  0
 34 35  2  0  0  0  0
 35 36  1  0  0  0  0
 36 37  2  0  0  0  0
 37 30  1  0  0  0  0
M  END
> <Molecule Name>
914

> <CDD Number>
CDD-15622

> <Human_sEH_IC50_uM>
0.1

> <Mouse_sEH_IC50_uM>
0.05

$$$$

SketchEl molfile

 27 29  0  0  0  0  0  0  0  0999 V2000
    2.7836    3.0265    0.0000 C   0  0  0  0  0  0  0  0  0  0  0  0
    1.3836    3.0265    0.0000 C   0  0  0  0  0  0  0  0  0  0  0  0
    1.0130    1.6760    0.0000 C   0  0  0  0  0  0  0  0  0  0  0  0
    0.0000    0.7000    0.0000 C   0  0  0  0  0  0  0  0  0  0  0  0
    1.3836    0.7000    0.0000 C   0  0  0  0  0  0  0  0  0  0  0  0
    1.7500    2.0466    0.0000 C   0  0  0  0  0  0  0  0  0  0  0  0
    3.9941    2.3265    0.0000 C   0  0  0  0  0  0  0  0  0  0  0  0
    3.6319    0.9760    0.0000 C   0  0  0  0  0  0  0  0  0  0  0  0
    2.5941    0.0000    0.0000 C   0  0  0  0  0  0  0  0  0  0  0  0
    2.2235    0.9760    0.0000 C   0  0  0  0  0  0  0  0  0  0  0  0
    4.8424    0.2760    0.0000 N   0  0  0  0  0  0  0  0  0  0  0  0
    6.0529    0.9760    0.0000 C   0  0  0  0  0  0  0  0  0  0  0  0
    6.0529    2.3760    0.0000 O   0  0  0  0  0  0  0  0  0  0  0  0
    7.2635    0.2760    0.0000 N   0  0  0  0  0  0  0  0  0  0  0  0
    8.4743    0.9760    0.0000 C   0  0  0  0  0  0  0  0  0  0  0  0
    9.6848    0.2760    0.0000 C   0  0  0  0  0  0  0  0  0  0  0  0
   10.8954    0.9760    0.0000 C   0  0  0  0  0  0  0  0  0  0  0  0
   12.1059    0.2760    0.0000 C   0  0  0  0  0  0  0  0  0  0  0  0
   13.3164    0.9760    0.0000 C   0  0  0  0  0  0  0  0  0  0  0  0
   14.5289    0.2760    0.0000 O   0  0  0  0  0  0  0  0  0  0  0  0
   15.7413    0.9760    0.0000 C   0  0  0  0  0  0  0  0  0  0  0  0
   16.9537    0.2760    0.0000 C   0  0  0  0  0  0  0  0  0  0  0  0
   18.1662    0.9760    0.0000 O   0  0  0  0  0  0  0  0  0  0  0  0
   19.3786    0.2760    0.0000 C   0  0  0  0  0  0  0  0  0  0  0  0
   20.5910    0.9760    0.0000 C   0  0  0  0  0  0  0  0  0  0  0  0
   21.8035    0.2760    0.0000 C   0  0  0  0  0  0  0  0  0  0  0  0
   23.0159    0.9760    0.0000 C   0  0  0  0  0  0  0  0  0  0  0  0
  1  2  1  0  0  0  0
  2  3  1  0  0  0  0
  3  4  1  0  0  0  0
  4  5  1  0  0  0  0
  5  6  1  0  0  0  0
  1  6  1  0  0  0  0
  1  7  1  0  0  0  0
  7  8  1  0  0  0  0
  5  9  1  0  0  0  0
  8  9  1  0  0  0  0
  3 10  1  0  0  0  0
  8 10  1  0  0  0  0
  8 11  1  0  0  0  0
 11 12  1  0  0  0  0
 12 13  2  0  0  0  0
 12 14  1  0  0  0  0
 14 15  1  0  0  0  0
 15 16  1  0  0  0  0
 16 17  1  0  0  0  0
 17 18  1  0  0  0  0
 18 19  1  0  0  0  0
 19 20  1  0  0  0  0
 20 21  1  0  0  0  0
 21 22  1  0  0  0  0
 22 23  1  0  0  0  0
 23 24  1  0  0  0  0
 24 25  1  0  0  0  0
 25 26  1  0  0  0  0
 26 27  3  0  0  0  0
M  END
> <Molecule Name>
913

> <CDD Number>
CDD-15621

> <Human_sEH_IC50_uM>
0.1

> <Mouse_sEH_IC50_uM>
0.05

$$$$

SketchEl molfile

 24 27  0  0  0  0  0  0  0  0999 V2000
    2.7836    3.0265    0.0000 C   0  0  0  0  0  0  0  0  0  0  0  0
    1.3836    3.0265    0.0000 C   0  0  0  0  0  0  0  0  0  0  0  0
    1.0130    1.6760    0.0000 C   0  0  0  0  0  0  0  0  0  0  0  0
    0.0000    0.7000    0.0000 C   0  0  0  0  0  0  0  0  0  0  0  0
    1.3836    0.7000    0.0000 C   0  0  0  0  0  0  0  0  0  0  0  0
    1.7500    2.0466    0.0000 C   0  0  0  0  0  0  0  0  0  0  0  0
    3.9941    2.3265    0.0000 C   0  0  0  0  0  0  0  0  0  0  0  0
    3.6319    0.9760    0.0000 C   0  0  0  0  0  0  0  0  0  0  0  0
    2.5941    0.0000    0.0000 C   0  0  0  0  0  0  0  0  0  0  0  0
    2.2235    0.9760    0.0000 C   0  0  0  0  0  0  0  0  0  0  0  0
    4.8424    0.2760    0.0000 N   0  0  0  0  0  0  0  0  0  0  0  0
    6.0529    0.9760    0.0000 C   0  0  0  0  0  0  0  0  0  0  0  0
    6.0529    2.3760    0.0000 O   0  0  0  0  0  0  0  0  0  0  0  0
    7.2635    0.2760    0.0000 C   0  0  0  0  0  0  0  0  0  0  0  0
    8.4743    0.9760    0.0000 C   0  0  0  0  0  0  0  0  0  0  0  0
    9.6867    0.2760    0.0000 C   0  0  0  0  0  0  0  0  0  0  0  0
   10.8992    0.9760    0.0000 C   0  0  0  0  0  0  0  0  0  0  0  0
   10.8992    2.3760    0.0000 C   0  0  0  0  0  0  0  0  0  0  0  0
    9.6867    3.0760    0.0000 C   0  0  0  0  0  0  0  0  0  0  0  0
    8.4743    2.3760    0.0000 C   0  0  0  0  0  0  0  0  0  0  0  0
   12.1116    3.0760    0.0000 N   0  0  0  0  0  0  0  0  0  0  0  0
   13.3241    2.3760    0.0000 C   0  0  0  0  0  0  0  0  0  0  0  0
   13.3241    0.9760    0.0000 O   0  0  0  0  0  0  0  0  0  0  0  0
   14.5365    3.0760    0.0000 C   0  0  0  0  0  0  0  0  0  0  0  0
  1  2  1  0  0  0  0
  2  3  1  0  0  0  0
  3  4  1  0  0  0  0
  4  5  1  0  0  0  0
  5  6  1  0  0  0  0
  1  6  1  0  0  0  0
  1  7  1  0  0  0  0
  7  8  1  0  0  0  0
  5  9  1  0  0  0  0
  8  9  1  0  0  0  0
  3 10  1  0  0  0  0
  8 10  1  0  0  0  0
  8 11  1  0  0  0  0
 11 12  1  0  0  0  0
 12 13  2  0  0  0  0
 12 14  1  0  0  0  0
 14 15  1  0  0  0  0
 15 16  2  0  0  0  0
 16 17  1  0  0  0  0
 17 18  2  0  0  0  0
 18 19  1  0  0  0  0
 19 20  2  0  0  0  0
 20 15  1  0  0  0  0
 18 21  1  0  0  0  0
 21 22  1  0  0  0  0
 22 23  2  0  0  0  0
 22 24  1  0  0  0  0
M  END
> <Molecule Name>
912

> <CDD Number>
CDD-15620

> <Human_sEH_IC50_uM>
35.0

> <Mouse_sEH_IC50_uM>
4.1

$$$$

SketchEl molfile

 25 27  0  0  0  0  0  0  0  0999 V2000
    3.1249    2.1808    0.0000 C   0  0  0  0  0  0  0  0  0  0  0  0
    4.6466    1.3022    0.0000 N   0  0  0  0  0  0  0  0  0  0  0  0
    6.1015    2.1422    0.0000 C   0  0  0  0  0  0  0  0  0  0  0  0
    7.6130    1.2696    0.0000 N   0  0  0  0  0  0  0  0  0  0  0  0
    9.0513    2.1000    0.0000 C   0  0  0  0  0  0  0  0  0  0  0  0
    6.1015    3.8091    0.0000 O   0  0  0  0  0  0  0  0  0  0  0  0
    3.1249    3.5808    0.0000 C   0  0  0  0  0  0  0  0  0  0  0  0
    1.9124    4.2808    0.0000 C   0  0  0  0  0  0  0  0  0  0  0  0
    0.7000    3.5808    0.0000 C   0  0  0  0  0  0  0  0  0  0  0  0
    0.7000    2.1808    0.0000 C   0  0  0  0  0  0  0  0  0  0  0  0
    1.9124    1.4808    0.0000 C   0  0  0  0  0  0  0  0  0  0  0  0
    2.4249    0.9683    0.0000 C   0  0  0  0  0  0  0  0  0  0  0  0
    0.0000    0.9683    0.0000 C   0  0  0  0  0  0  0  0  0  0  0  0
    1.0726    1.3307    0.0000 C   0  0  0  0  0  0  0  0  0  0  0  0
    1.0726    2.7307    0.0000 C   0  0  0  0  0  0  0  0  0  0  0  0
   10.2638    1.4000    0.0000 C   0  0  0  0  0  0  0  0  0  0  0  0
   11.4762    2.1000    0.0000 C   0  0  0  0  0  0  0  0  0  0  0  0
   12.6886    1.4000    0.0000 C   0  0  0  0  0  0  0  0  0  0  0  0
   13.9011    2.1000    0.0000 C   0  0  0  0  0  0  0  0  0  0  0  0
   15.1135    1.4000    0.0000 C   0  0  0  0  0  0  0  0  0  0  0  0
   16.3260    2.1000    0.0000 C   0  0  0  0  0  0  0  0  0  0  0  0
   17.5384    1.4000    0.0000 C   0  0  0  0  0  0  0  0  0  0  0  0
   18.7508    2.1000    0.0000 C   0  0  0  0  0  0  0  0  0  0  0  0
   19.9633    1.4000    0.0000 C   0  0  0  0  0  0  0  0  0  0  0  0
   12.6886    0.0000    0.0000 O   0  0  0  0  0  0  0  0  0  0  0  0
  1  2  1  0  0  0  0
  2  3  1  0  0  0  0
  3  4  1  0  0  0  0
  4  5  1  0  0  0  0
  3  6  2  0  0  0  0
  1  7  1  0  0  0  0
  7  8  1  0  0  0  0
  8  9  1  0  0  0  0
  9 10  1  0  0  0  0
 10 11  1  0  0  0  0
 11  1  1  0  0  0  0
  1 12  1  0  0  0  0
 10 13  1  0  0  0  0
 12 14  1  0  0  0  0
 13 14  1  0  0  0  0
 14 15  1  0  0  0  0
  8 15  1  0  0  0  0
  5 16  1  0  0  0  0
 16 17  1  0  0  0  0
 17 18  1  0  0  0  0
 18 19  1  0  0  0  0
 19 20  1  0  0  0  0
 20 21  1  0  0  0  0
 21 22  1  0  0  0  0
 22 23  1  0  0  0  0
 23 24  1  0  0  0  0
 18 25  1  0  0  0  0
M  END
> <Molecule Name>
911

> <CDD Number>
CDD-15603

> <Human_sEH_IC50_uM>
0.13

> <Mouse_sEH_IC50_uM>
0.05

$$$$

SketchEl molfile

 27 29  0  0  0  0  0  0  0  0999 V2000
    2.7836    3.0265    0.0000 C   0  0  0  0  0  0  0  0  0  0  0  0
    1.3836    3.0265    0.0000 C   0  0  0  0  0  0  0  0  0  0  0  0
    1.0130    1.6760    0.0000 C   0  0  0  0  0  0  0  0  0  0  0  0
    0.0000    0.7000    0.0000 C   0  0  0  0  0  0  0  0  0  0  0  0
    1.3836    0.7000    0.0000 C   0  0  0  0  0  0  0  0  0  0  0  0
    1.7500    2.0466    0.0000 C   0  0  0  0  0  0  0  0  0  0  0  0
    3.9941    2.3265    0.0000 C   0  0  0  0  0  0  0  0  0  0  0  0
    3.6319    0.9760    0.0000 C   0  0  0  0  0  0  0  0  0  0  0  0
    2.5941    0.0000    0.0000 C   0  0  0  0  0  0  0  0  0  0  0  0
    2.2235    0.9760    0.0000 C   0  0  0  0  0  0  0  0  0  0  0  0
    4.8424    0.2760    0.0000 N   0  0  0  0  0  0  0  0  0  0  0  0
    6.0529    0.9760    0.0000 C   0  0  0  0  0  0  0  0  0  0  0  0
    6.0529    2.3760    0.0000 O   0  0  0  0  0  0  0  0  0  0  0  0
    7.2635    0.2760    0.0000 N   0  0  0  0  0  0  0  0  0  0  0  0
    8.4743    0.9760    0.0000 C   0  0  0  0  0  0  0  0  0  0  0  0
    9.6848    0.2760    0.0000 C   0  0  0  0  0  0  0  0  0  0  0  0
   10.8954    0.9760    0.0000 C   0  0  0  0  0  0  0  0  0  0  0  0
   12.1059    0.2760    0.0000 C   0  0  0  0  0  0  0  0  0  0  0  0
   13.3164    0.9760    0.0000 C   0  0  0  0  0  0  0  0  0  0  0  0
   14.5289    0.2760    0.0000 O   0  0  0  0  0  0  0  0  0  0  0  0
   15.7413    0.9760    0.0000 C   0  0  0  0  0  0  0  0  0  0  0  0
   15.7413    2.3760    0.0000 C   0  0  0  0  0  0  0  0  0  0  0  0
   14.5289    3.0760    0.0000 C   0  0  0  0  0  0  0  0  0  0  0  0
   16.9537    0.2760    0.0000 C   0  0  0  0  0  0  0  0  0  0  0  0
   18.1662    0.9760    0.0000 C   0  0  0  0  0  0  0  0  0  0  0  0
   19.3786    0.2760    0.0000 C   0  0  0  0  0  0  0  0  0  0  0  0
   20.5910    0.9760    0.0000 C   0  0  0  0  0  0  0  0  0  0  0  0
  1  2  1  0  0  0  0
  2  3  1  0  0  0  0
  3  4  1  0  0  0  0
  4  5  1  0  0  0  0
  5  6  1  0  0  0  0
  1  6  1  0  0  0  0
  1  7  1  0  0  0  0
  7  8  1  0  0  0  0
  5  9  1  0  0  0  0
  8  9  1  0  0  0  0
  3 10  1  0  0  0  0
  8 10  1  0  0  0  0
  8 11  1  0  0  0  0
 11 12  1  0  0  0  0
 12 13  2  0  0  0  0
 12 14  1  0  0  0  0
 14 15  1  0  0  0  0
 15 16  1  0  0  0  0
 16 17  1  0  0  0  0
 17 18  1  0  0  0  0
 18 19  1  0  0  0  0
 19 20  1  0  0  0  0
 20 21  1  0  0  0  0
 21 22  1  0  0  0  0
 22 23  1  0  0  0  0
 21 24  1  0  0  0  0
 24 25  1  0  0  0  0
 25 26  1  0  0  0  0
 26 27  1  0  0  0  0
M  END
> <Molecule Name>
910

> <CDD Number>
CDD-15595

> <Human_sEH_IC50_uM>
0.24

> <Mouse_sEH_IC50_uM>
0.05

$$$$

SketchEl molfile

 26 29  0  0  0  0  0  0  0  0999 V2000
    2.7836    3.0265    0.0000 C   0  0  0  0  0  0  0  0  0  0  0  0
    1.3836    3.0265    0.0000 C   0  0  0  0  0  0  0  0  0  0  0  0
    1.0130    1.6760    0.0000 C   0  0  0  0  0  0  0  0  0  0  0  0
    0.0000    0.7000    0.0000 C   0  0  0  0  0  0  0  0  0  0  0  0
    1.3836    0.7000    0.0000 C   0  0  0  0  0  0  0  0  0  0  0  0
    1.7500    2.0466    0.0000 C   0  0  0  0  0  0  0  0  0  0  0  0
    3.9941    2.3265    0.0000 C   0  0  0  0  0  0  0  0  0  0  0  0
    3.6319    0.9760    0.0000 C   0  0  0  0  0  0  0  0  0  0  0  0
    2.5941    0.0000    0.0000 C   0  0  0  0  0  0  0  0  0  0  0  0
    2.2235    0.9760    0.0000 C   0  0  0  0  0  0  0  0  0  0  0  0
    4.8424    0.2760    0.0000 N   0  0  0  0  0  0  0  0  0  0  0  0
    6.0529    0.9760    0.0000 C   0  0  0  0  0  0  0  0  0  0  0  0
    6.0529    2.3760    0.0000 O   0  0  0  0  0  0  0  0  0  0  0  0
    7.2635    0.2760    0.0000 N   0  0  0  0  0  0  0  0  0  0  0  0
    8.4743    0.9760    0.0000 C   0  0  0  0  0  0  0  0  0  0  0  0
    9.6867    0.2760    0.0000 C   0  0  0  0  0  0  0  0  0  0  0  0
   10.8992    0.9760    0.0000 C   0  0  0  0  0  0  0  0  0  0  0  0
   10.8992    2.3760    0.0000 C   0  0  0  0  0  0  0  0  0  0  0  0
    9.6867    3.0760    0.0000 C   0  0  0  0  0  0  0  0  0  0  0  0
    8.4743    2.3760    0.0000 C   0  0  0  0  0  0  0  0  0  0  0  0
   12.1116    3.0760    0.0000 O   0  0  0  0  0  0  0  0  0  0  0  0
   13.3241    2.3760    0.0000 C   0  0  0  0  0  0  0  0  0  0  0  0
   14.5365    3.0760    0.0000 C   0  0  0  0  0  0  0  0  0  0  0  0
   15.7489    2.3760    0.0000 C   0  0  0  0  0  0  0  0  0  0  0  0
   16.9614    3.0760    0.0000 C   0  0  0  0  0  0  0  0  0  0  0  0
   18.1738    2.3760    0.0000 C   0  0  0  0  0  0  0  0  0  0  0  0
  1  2  1  0  0  0  0
  2  3  1  0  0  0  0
  3  4  1  0  0  0  0
  4  5  1  0  0  0  0
  5  6  1  0  0  0  0
  1  6  1  0  0  0  0
  1  7  1  0  0  0  0
  7  8  1  0  0  0  0
  5  9  1  0  0  0  0
  8  9  1  0  0  0  0
  3 10  1  0  0  0  0
  8 10  1  0  0  0  0
  8 11  1  0  0  0  0
 11 12  1  0  0  0  0
 12 13  2  0  0  0  0
 12 14  1  0  0  0  0
 14 15  1  0  0  0  0
 15 16  1  0  0  0  0
 16 17  1  0  0  0  0
 17 18  1  0  0  0  0
 18 19  1  0  0  0  0
 19 20  1  0  0  0  0
 20 15  1  0  0  0  0
 18 21  1  0  0  0  0
 21 22  1  0  0  0  0
 22 23  1  0  0  0  0
 23 24  1  0  0  0  0
 24 25  1  0  0  0  0
 25 26  1  0  0  0  0
M  END
> <Molecule Name>
909

> <CDD Number>
CDD-15594

> <Human_sEH_IC50_uM>
0.11

> <Mouse_sEH_IC50_uM>
0.05

$$$$

SketchEl molfile

 24 26  0  0  0  0  0  0  0  0999 V2000
    2.7863    3.0294    0.0000 C   0  0  0  0  0  0  0  0  0  0  0  0
    1.3850    3.0294    0.0000 C   0  0  0  0  0  0  0  0  0  0  0  0
    1.0140    1.6777    0.0000 C   0  0  0  0  0  0  0  0  0  0  0  0
    0.0000    0.7007    0.0000 C   0  0  0  0  0  0  0  0  0  0  0  0
    1.3850    0.7007    0.0000 C   0  0  0  0  0  0  0  0  0  0  0  0
    1.7517    2.0486    0.0000 C   0  0  0  0  0  0  0  0  0  0  0  0
    3.9980    2.3288    0.0000 C   0  0  0  0  0  0  0  0  0  0  0  0
    3.6355    0.9770    0.0000 C   0  0  0  0  0  0  0  0  0  0  0  0
    2.5967    0.0000    0.0000 C   0  0  0  0  0  0  0  0  0  0  0  0
    2.2257    0.9770    0.0000 C   0  0  0  0  0  0  0  0  0  0  0  0
    4.8472    0.2763    0.0000 N   0  0  0  0  0  0  0  0  0  0  0  0
    6.0589    0.9770    0.0000 C   0  0  0  0  0  0  0  0  0  0  0  0
    6.0589    2.3783    0.0000 O   0  0  0  0  0  0  0  0  0  0  0  0
    7.2706    0.2763    0.0000 N   0  0  0  0  0  0  0  0  0  0  0  0
    8.4827    0.9770    0.0000 C   0  0  0  0  0  0  0  0  0  0  0  0
    9.6944    0.2763    0.0000 C   0  0  0  0  0  0  0  0  0  0  0  0
   10.9061    0.9770    0.0000 C   0  0  0  0  0  0  0  0  0  0  0  0
   12.1178    0.2763    0.0000 C   0  0  0  0  0  0  0  0  0  0  0  0
   13.3295    0.9770    0.0000 C   0  0  0  0  0  0  0  0  0  0  0  0
   14.5431    0.2763    0.0000 O   0  0  0  0  0  0  0  0  0  0  0  0
   15.7568    0.9770    0.0000 C   0  0  0  0  0  0  0  0  0  0  0  0
   16.9704    0.2763    0.0000 C   0  0  0  0  0  0  0  0  0  0  0  0
   18.1840    0.9770    0.0000 O   0  0  0  0  0  0  0  0  0  0  0  0
   19.3977    0.2763    0.0000 C   0  0  0  0  0  0  0  0  0  0  0  0
  1  2  1  0  0  0  0
  2  3  1  0  0  0  0
  3  4  1  0  0  0  0
  4  5  1  0  0  0  0
  5  6  1  0  0  0  0
  1  6  1  0  0  0  0
  1  7  1  0  0  0  0
  7  8  1  0  0  0  0
  5  9  1  0  0  0  0
  8  9  1  0  0  0  0
  3 10  1  0  0  0  0
  8 10  1  0  0  0  0
  8 11  1  0  0  0  0
 11 12  1  0  0  0  0
 12 13  2  0  0  0  0
 12 14  1  0  0  0  0
 14 15  1  0  0  0  0
 15 16  1  0  0  0  0
 16 17  1  0  0  0  0
 17 18  1  0  0  0  0
 18 19  1  0  0  0  0
 19 20  1  0  0  0  0
 20 21  1  0  0  0  0
 21 22  1  0  0  0  0
 22 23  1  0  0  0  0
 23 24  1  0  0  0  0
M  END
> <Molecule Name>
908

> <CDD Number>
CDD-15593

> <Human_sEH_IC50_uM>
0.16

> <Mouse_sEH_IC50_uM>
0.05

$$$$

SketchEl molfile

 33 37  0  0  0  0  0  0  0  0999 V2000
    2.7836    4.8505    0.0000 C   0  0  0  0  0  0  0  0  0  0  0  0
    1.3836    4.8505    0.0000 C   0  0  0  0  0  0  0  0  0  0  0  0
    1.0130    3.5000    0.0000 C   0  0  0  0  0  0  0  0  0  0  0  0
    0.0000    2.5240    0.0000 C   0  0  0  0  0  0  0  0  0  0  0  0
    1.3836    2.5240    0.0000 C   0  0  0  0  0  0  0  0  0  0  0  0
    1.7500    3.8706    0.0000 C   0  0  0  0  0  0  0  0  0  0  0  0
    3.9941    4.1505    0.0000 C   0  0  0  0  0  0  0  0  0  0  0  0
    3.6319    2.8000    0.0000 C   0  0  0  0  0  0  0  0  0  0  0  0
    2.5941    1.8240    0.0000 C   0  0  0  0  0  0  0  0  0  0  0  0
    2.2235    2.8000    0.0000 C   0  0  0  0  0  0  0  0  0  0  0  0
    4.8424    2.1000    0.0000 N   0  0  0  0  0  0  0  0  0  0  0  0
    6.0529    2.8000    0.0000 C   0  0  0  0  0  0  0  0  0  0  0  0
    6.0529    4.2000    0.0000 O   0  0  0  0  0  0  0  0  0  0  0  0
    7.2635    2.1000    0.0000 N   0  0  0  0  0  0  0  0  0  0  0  0
    8.4743    2.8000    0.0000 C   0  0  0  0  0  0  0  0  0  0  0  0
    9.6848    2.1000    0.0000 C   0  0  0  0  0  0  0  0  0  0  0  0
   10.8954    2.8000    0.0000 N   0  0  0  0  0  0  0  0  0  0  0  0
   12.1059    2.1000    0.0000 S   0  0  0  0  0  0  0  0  0  0  0  0
   13.3164    2.8000    0.0000 C   0  0  0  0  0  0  0  0  0  0  0  0
   12.1059    0.7000    0.0000 O   0  0  0  0  0  0  0  0  0  0  0  0
   12.1059    3.5000    0.0000 O   0  0  0  0  0  0  0  0  0  0  0  0
   14.5288    2.1000    0.0000 C   0  0  0  0  0  0  0  0  0  0  0  0
   15.7413    2.8000    0.0000 C   0  0  0  0  0  0  0  0  0  0  0  0
   15.7413    4.2000    0.0000 C   0  0  0  0  0  0  0  0  0  0  0  0
   14.5288    4.9000    0.0000 C   0  0  0  0  0  0  0  0  0  0  0  0
   13.3164    4.2000    0.0000 C   0  0  0  0  0  0  0  0  0  0  0  0
   14.5288    0.7000    0.0000 C   0  0  0  0  0  0  0  0  0  0  0  0
   15.7413    0.0000    0.0000 C   0  0  0  0  0  0  0  0  0  0  0  0
   16.9537    0.7000    0.0000 C   0  0  0  0  0  0  0  0  0  0  0  0
   16.9537    2.1000    0.0000 C   0  0  0  0  0  0  0  0  0  0  0  0
   18.1662    2.8000    0.0000 N   0  0  0  0  0  0  0  0  0  0  0  0
   19.3786    2.1000    0.0000 C   0  0  0  0  0  0  0  0  0  0  0  0
   18.1662    4.2000    0.0000 C   0  0  0  0  0  0  0  0  0  0  0  0
  1  2  1  0  0  0  0
  2  3  1  0  0  0  0
  3  4  1  0  0  0  0
  4  5  1  0  0  0  0
  5  6  1  0  0  0  0
  1  6  1  0  0  0  0
  1  7  1  0  0  0  0
  7  8  1  0  0  0  0
  5  9  1  0  0  0  0
  8  9  1  0  0  0  0
  3 10  1  0  0  0  0
  8 10  1  0  0  0  0
  8 11  1  0  0  0  0
 11 12  1  0  0  0  0
 12 13  2  0  0  0  0
 12 14  1  0  0  0  0
 14 15  1  0  0  0  0
 15 16  1  0  0  0  0
 16 17  1  0  0  0  0
 17 18  1  0  0  0  0
 18 19  1  0  0  0  0
 18 20  2  0  0  0  0
 18 21  2  0  0  0  0
 19 22  2  0  0  0  0
 22 23  1  0  0  0  0
 23 24  2  0  0  0  0
 24 25  1  0  0  0  0
 25 26  2  0  0  0  0
 26 19  1  0  0  0  0
 22 27  1  0  0  0  0
 27 28  2  0  0  0  0
 28 29  1  0  0  0  0
 29 30  2  0  0  0  0
 30 23  1  0  0  0  0
 30 31  1  0  0  0  0
 31 32  1  0  0  0  0
 31 33  1  0  0  0  0
M  END
> <Molecule Name>
907

> <CDD Number>
CDD-15592

> <Human_sEH_IC50_uM>
0.6

> <Mouse_sEH_IC50_uM>
0.4

$$$$

SketchEl molfile

 28 31  0  0  0  0  0  0  0  0999 V2000
    2.7836    4.1505    0.0000 C   0  0  0  0  0  0  0  0  0  0  0  0
    1.3836    4.1505    0.0000 C   0  0  0  0  0  0  0  0  0  0  0  0
    1.0130    2.8000    0.0000 C   0  0  0  0  0  0  0  0  0  0  0  0
    0.0000    1.8240    0.0000 C   0  0  0  0  0  0  0  0  0  0  0  0
    1.3836    1.8240    0.0000 C   0  0  0  0  0  0  0  0  0  0  0  0
    1.7500    3.1706    0.0000 C   0  0  0  0  0  0  0  0  0  0  0  0
    3.9941    3.4505    0.0000 C   0  0  0  0  0  0  0  0  0  0  0  0
    3.6319    2.1000    0.0000 C   0  0  0  0  0  0  0  0  0  0  0  0
    2.5941    1.1240    0.0000 C   0  0  0  0  0  0  0  0  0  0  0  0
    2.2235    2.1000    0.0000 C   0  0  0  0  0  0  0  0  0  0  0  0
    4.8424    1.4000    0.0000 N   0  0  0  0  0  0  0  0  0  0  0  0
    6.0529    2.1000    0.0000 C   0  0  0  0  0  0  0  0  0  0  0  0
    6.0529    3.5000    0.0000 O   0  0  0  0  0  0  0  0  0  0  0  0
    7.2635    1.4000    0.0000 N   0  0  0  0  0  0  0  0  0  0  0  0
    8.4743    2.1000    0.0000 C   0  0  0  0  0  0  0  0  0  0  0  0
    9.6867    1.4000    0.0000 C   0  0  0  0  0  0  0  0  0  0  0  0
   10.8992    2.1000    0.0000 C   0  0  0  0  0  0  0  0  0  0  0  0
   10.8992    3.5000    0.0000 C   0  0  0  0  0  0  0  0  0  0  0  0
    9.6867    4.2000    0.0000 C   0  0  0  0  0  0  0  0  0  0  0  0
    8.4743    3.5000    0.0000 C   0  0  0  0  0  0  0  0  0  0  0  0
   12.1116    1.4000    0.0000 C   0  0  0  0  0  0  0  0  0  0  0  0
   12.1116    0.0000    0.0000 O   0  0  0  0  0  0  0  0  0  0  0  0
   13.3241    2.1000    0.0000 O   0  0  0  0  0  0  0  0  0  0  0  0
   14.5365    1.4000    0.0000 C   0  0  0  0  0  0  0  0  0  0  0  0
   15.7489    2.1000    0.0000 C   0  0  0  0  0  0  0  0  0  0  0  0
   16.9614    1.4000    0.0000 C   0  0  0  0  0  0  0  0  0  0  0  0
   18.1738    2.1000    0.0000 C   0  0  0  0  0  0  0  0  0  0  0  0
   19.3862    1.4000    0.0000 C   0  0  0  0  0  0  0  0  0  0  0  0
  1  2  1  0  0  0  0
  2  3  1  0  0  0  0
  3  4  1  0  0  0  0
  4  5  1  0  0  0  0
  5  6  1  0  0  0  0
  1  6  1  0  0  0  0
  1  7  1  0  0  0  0
  7  8  1  0  0  0  0
  5  9  1  0  0  0  0
  8  9  1  0  0  0  0
  3 10  1  0  0  0  0
  8 10  1  0  0  0  0
  8 11  1  0  0  0  0
 11 12  1  0  0  0  0
 12 13  2  0  0  0  0
 12 14  1  0  0  0  0
 14 15  1  0  0  0  0
 15 16  1  0  0  0  0
 16 17  1  0  0  0  0
 17 18  1  0  0  0  0
 18 19  1  0  0  0  0
 19 20  1  0  0  0  0
 20 15  1  0  0  0  0
 17 21  1  0  0  0  0
 21 22  2  0  0  0  0
 21 23  1  0  0  0  0
 23 24  1  0  0  0  0
 24 25  1  0  0  0  0
 25 26  1  0  0  0  0
 26 27  1  0  0  0  0
 27 28  1  0  0  0  0
M  END
> <Molecule Name>
906

> <CDD Number>
CDD-15585

> <Human_sEH_IC50_uM>
0.1

> <Mouse_sEH_IC50_uM>
0.05

$$$$

SketchEl molfile

 28 31  0  0  0  0  0  0  0  0999 V2000
    2.7836    4.1505    0.0000 C   0  0  0  0  0  0  0  0  0  0  0  0
    1.3836    4.1505    0.0000 C   0  0  0  0  0  0  0  0  0  0  0  0
    1.0130    2.8000    0.0000 C   0  0  0  0  0  0  0  0  0  0  0  0
    0.0000    1.8240    0.0000 C   0  0  0  0  0  0  0  0  0  0  0  0
    1.3836    1.8240    0.0000 C   0  0  0  0  0  0  0  0  0  0  0  0
    1.7500    3.1706    0.0000 C   0  0  0  0  0  0  0  0  0  0  0  0
    3.9941    3.4505    0.0000 C   0  0  0  0  0  0  0  0  0  0  0  0
    3.6319    2.1000    0.0000 C   0  0  0  0  0  0  0  0  0  0  0  0
    2.5941    1.1240    0.0000 C   0  0  0  0  0  0  0  0  0  0  0  0
    2.2235    2.1000    0.0000 C   0  0  0  0  0  0  0  0  0  0  0  0
    4.8424    1.4000    0.0000 N   0  0  0  0  0  0  0  0  0  0  0  0
    6.0529    2.1000    0.0000 C   0  0  0  0  0  0  0  0  0  0  0  0
    6.0529    3.5000    0.0000 O   0  0  0  0  0  0  0  0  0  0  0  0
    7.2635    1.4000    0.0000 N   0  0  0  0  0  0  0  0  0  0  0  0
    8.4743    2.1000    0.0000 C   0  0  0  0  0  0  0  0  0  0  0  0
    9.6867    1.4000    0.0000 C   0  0  0  0  0  0  0  0  0  0  0  0
   10.8992    2.1000    0.0000 C   0  0  0  0  0  0  0  0  0  0  0  0
   10.8992    3.5000    0.0000 C   0  0  0  0  0  0  0  0  0  0  0  0
    9.6867    4.2000    0.0000 C   0  0  0  0  0  0  0  0  0  0  0  0
    8.4743    3.5000    0.0000 C   0  0  0  0  0  0  0  0  0  0  0  0
   12.1116    1.4000    0.0000 C   0  0  0  0  0  0  0  0  0  0  0  0
   12.1116    0.0000    0.0000 O   0  0  0  0  0  0  0  0  0  0  0  0
   13.3241    2.1000    0.0000 O   0  0  0  0  0  0  0  0  0  0  0  0
   14.5365    1.4000    0.0000 C   0  0  0  0  0  0  0  0  0  0  0  0
   15.7489    2.1000    0.0000 C   0  0  0  0  0  0  0  0  0  0  0  0
   16.9614    1.4000    0.0000 C   0  0  0  0  0  0  0  0  0  0  0  0
   18.1738    2.1000    0.0000 C   0  0  0  0  0  0  0  0  0  0  0  0
   19.3862    1.4000    0.0000 C   0  0  0  0  0  0  0  0  0  0  0  0
  1  2  1  0  0  0  0
  2  3  1  0  0  0  0
  3  4  1  0  0  0  0
  4  5  1  0  0  0  0
  5  6  1  0  0  0  0
  1  6  1  0  0  0  0
  1  7  1  0  0  0  0
  7  8  1  0  0  0  0
  5  9  1  0  0  0  0
  8  9  1  0  0  0  0
  3 10  1  0  0  0  0
  8 10  1  0  0  0  0
  8 11  1  0  0  0  0
 11 12  1  0  0  0  0
 12 13  2  0  0  0  0
 12 14  1  0  0  0  0
 14 15  1  0  0  0  0
 15 16  1  0  0  0  0
 16 17  1  0  0  0  0
 17 18  1  0  0  0  0
 18 19  1  0  0  0  0
 19 20  1  0  0  0  0
 20 15  1  0  0  0  0
 17 21  1  0  0  0  0
 21 22  2  0  0  0  0
 21 23  1  0  0  0  0
 23 24  1  0  0  0  0
 24 25  1  0  0  0  0
 25 26  1  0  0  0  0
 26 27  1  0  0  0  0
 27 28  1  0  0  0  0
M  END
> <Molecule Name>
906

> <CDD Number>
CDD-15585

> <Human_sEH_IC50_uM>
0.1

> <Mouse_sEH_IC50_uM>
0.05

$$$$

SketchEl molfile

 27 29  0  0  0  0  0  0  0  0999 V2000
    2.7836    4.8505    0.0000 C   0  0  0  0  0  0  0  0  0  0  0  0
    1.3836    4.8505    0.0000 C   0  0  0  0  0  0  0  0  0  0  0  0
    1.0130    3.5000    0.0000 C   0  0  0  0  0  0  0  0  0  0  0  0
    0.0000    2.5240    0.0000 C   0  0  0  0  0  0  0  0  0  0  0  0
    1.3836    2.5240    0.0000 C   0  0  0  0  0  0  0  0  0  0  0  0
    1.7500    3.8706    0.0000 C   0  0  0  0  0  0  0  0  0  0  0  0
    3.9941    4.1505    0.0000 C   0  0  0  0  0  0  0  0  0  0  0  0
    3.6319    2.8000    0.0000 C   0  0  0  0  0  0  0  0  0  0  0  0
    2.5941    1.8240    0.0000 C   0  0  0  0  0  0  0  0  0  0  0  0
    2.2235    2.8000    0.0000 C   0  0  0  0  0  0  0  0  0  0  0  0
    4.8424    2.1000    0.0000 N   0  0  0  0  0  0  0  0  0  0  0  0
    6.0529    2.8000    0.0000 C   0  0  0  0  0  0  0  0  0  0  0  0
    6.0529    4.2000    0.0000 O   0  0  0  0  0  0  0  0  0  0  0  0
    7.2635    2.1000    0.0000 N   0  0  0  0  0  0  0  0  0  0  0  0
    8.4743    2.8000    0.0000 C   0  0  0  0  0  0  0  0  0  0  0  0
    9.6867    2.1000    0.0000 C   0  0  0  0  0  0  0  0  0  0  0  0
   10.8992    2.8000    0.0000 C   0  0  0  0  0  0  0  0  0  0  0  0
   12.1116    2.1000    0.0000 C   0  0  0  0  0  0  0  0  0  0  0  0
   12.1116    0.7000    0.0000 O   0  0  0  0  0  0  0  0  0  0  0  0
   13.3241    2.8000    0.0000 O   0  0  0  0  0  0  0  0  0  0  0  0
   14.5365    2.1000    0.0000 C   0  0  0  0  0  0  0  0  0  0  0  0
   14.5365    0.7000    0.0000 C   0  0  0  0  0  0  0  0  0  0  0  0
   13.3241    0.0000    0.0000 C   0  0  0  0  0  0  0  0  0  0  0  0
   15.7489    2.8000    0.0000 C   0  0  0  0  0  0  0  0  0  0  0  0
   16.9614    2.1000    0.0000 C   0  0  0  0  0  0  0  0  0  0  0  0
   18.1738    2.8000    0.0000 C   0  0  0  0  0  0  0  0  0  0  0  0
   19.3862    2.1000    0.0000 C   0  0  0  0  0  0  0  0  0  0  0  0
  1  2  1  0  0  0  0
  2  3  1  0  0  0  0
  3  4  1  0  0  0  0
  4  5  1  0  0  0  0
  5  6  1  0  0  0  0
  1  6  1  0  0  0  0
  1  7  1  0  0  0  0
  7  8  1  0  0  0  0
  5  9  1  0  0  0  0
  8  9  1  0  0  0  0
  3 10  1  0  0  0  0
  8 10  1  0  0  0  0
  8 11  1  0  0  0  0
 11 12  1  0  0  0  0
 12 13  2  0  0  0  0
 12 14  1  0  0  0  0
 14 15  1  0  0  0  0
 15 16  1  0  0  0  0
 16 17  1  0  0  0  0
 17 18  1  0  0  0  0
 18 19  2  0  0  0  0
 18 20  1  0  0  0  0
 20 21  1  0  0  0  0
 21 22  1  0  0  0  0
 22 23  1  0  0  0  0
 21 24  1  0  0  0  0
 24 25  1  0  0  0  0
 25 26  1  0  0  0  0
 26 27  1  0  0  0  0
M  END
> <Molecule Name>
905

> <CDD Number>
CDD-15589

> <Human_sEH_IC50_uM>
0.45

> <Mouse_sEH_IC50_uM>
0.13

$$$$

SketchEl molfile

 30 33  0  0  0  0  0  0  0  0999 V2000
    2.7836    4.8505    0.0000 C   0  0  0  0  0  0  0  0  0  0  0  0
    1.3836    4.8505    0.0000 C   0  0  0  0  0  0  0  0  0  0  0  0
    1.0130    3.5000    0.0000 C   0  0  0  0  0  0  0  0  0  0  0  0
    0.0000    2.5240    0.0000 C   0  0  0  0  0  0  0  0  0  0  0  0
    1.3836    2.5240    0.0000 C   0  0  0  0  0  0  0  0  0  0  0  0
    1.7500    3.8706    0.0000 C   0  0  0  0  0  0  0  0  0  0  0  0
    3.9941    4.1505    0.0000 C   0  0  0  0  0  0  0  0  0  0  0  0
    3.6319    2.8000    0.0000 C   0  0  0  0  0  0  0  0  0  0  0  0
    2.5941    1.8240    0.0000 C   0  0  0  0  0  0  0  0  0  0  0  0
    2.2235    2.8000    0.0000 C   0  0  0  0  0  0  0  0  0  0  0  0
    4.8424    2.1000    0.0000 N   0  0  0  0  0  0  0  0  0  0  0  0
    6.0529    2.8000    0.0000 C   0  0  0  0  0  0  0  0  0  0  0  0
    6.0529    4.2000    0.0000 O   0  0  0  0  0  0  0  0  0  0  0  0
    7.2635    2.1000    0.0000 N   0  0  0  0  0  0  0  0  0  0  0  0
    8.4743    2.8000    0.0000 C   0  0  0  0  0  0  0  0  0  0  0  0
    9.6867    2.1000    0.0000 C   0  0  0  0  0  0  0  0  0  0  0  0
   10.8992    2.8000    0.0000 C   0  0  0  0  0  0  0  0  0  0  0  0
   10.8992    4.2000    0.0000 C   0  0  0  0  0  0  0  0  0  0  0  0
    9.6867    4.9000    0.0000 C   0  0  0  0  0  0  0  0  0  0  0  0
    8.4743    4.2000    0.0000 C   0  0  0  0  0  0  0  0  0  0  0  0
   12.1116    2.1000    0.0000 C   0  0  0  0  0  0  0  0  0  0  0  0
   12.1116    0.7000    0.0000 O   0  0  0  0  0  0  0  0  0  0  0  0
   13.3241    2.8000    0.0000 O   0  0  0  0  0  0  0  0  0  0  0  0
   14.5365    2.1000    0.0000 C   0  0  0  0  0  0  0  0  0  0  0  0
   14.5365    0.7000    0.0000 C   0  0  0  0  0  0  0  0  0  0  0  0
   13.3241    0.0000    0.0000 C   0  0  0  0  0  0  0  0  0  0  0  0
   15.7489    2.8000    0.0000 C   0  0  0  0  0  0  0  0  0  0  0  0
   16.9614    2.1000    0.0000 C   0  0  0  0  0  0  0  0  0  0  0  0
   18.1738    2.8000    0.0000 C   0  0  0  0  0  0  0  0  0  0  0  0
   19.3862    2.1000    0.0000 C   0  0  0  0  0  0  0  0  0  0  0  0
  1  2  1  0  0  0  0
  2  3  1  0  0  0  0
  3  4  1  0  0  0  0
  4  5  1  0  0  0  0
  5  6  1  0  0  0  0
  1  6  1  0  0  0  0
  1  7  1  0  0  0  0
  7  8  1  0  0  0  0
  5  9  1  0  0  0  0
  8  9  1  0  0  0  0
  3 10  1  0  0  0  0
  8 10  1  0  0  0  0
  8 11  1  0  0  0  0
 11 12  1  0  0  0  0
 12 13  2  0  0  0  0
 12 14  1  0  0  0  0
 14 15  1  0  0  0  0
 15 16  1  0  0  0  0
 16 17  1  0  0  0  0
 17 18  1  0  0  0  0
 18 19  1  0  0  0  0
 19 20  1  0  0  0  0
 20 15  1  0  0  0  0
 17 21  1  0  0  0  0
 21 22  2  0  0  0  0
 21 23  1  0  0  0  0
 23 24  1  0  0  0  0
 24 25  1  0  0  0  0
 25 26  1  0  0  0  0
 24 27  1  0  0  0  0
 27 28  1  0  0  0  0
 28 29  1  0  0  0  0
 29 30  1  0  0  0  0
M  END
> <Molecule Name>
904

> <CDD Number>
CDD-15588

> <Human_sEH_IC50_uM>
0.1

> <Mouse_sEH_IC50_uM>
0.05

$$$$

SketchEl molfile

 47 49  0  0  0  0  0  0  0  0999 V2000
    2.7836    4.1505    0.0000 C   0  0  0  0  0  0  0  0  0  0  0  0
    1.3836    4.1505    0.0000 C   0  0  0  0  0  0  0  0  0  0  0  0
    1.0130    2.8000    0.0000 C   0  0  0  0  0  0  0  0  0  0  0  0
    0.0000    1.8240    0.0000 C   0  0  0  0  0  0  0  0  0  0  0  0
    1.3836    1.8240    0.0000 C   0  0  0  0  0  0  0  0  0  0  0  0
    1.7500    3.1706    0.0000 C   0  0  0  0  0  0  0  0  0  0  0  0
    3.9941    3.4505    0.0000 C   0  0  0  0  0  0  0  0  0  0  0  0
    3.6319    2.1000    0.0000 C   0  0  0  0  0  0  0  0  0  0  0  0
    2.5941    1.1240    0.0000 C   0  0  0  0  0  0  0  0  0  0  0  0
    2.2235    2.1000    0.0000 C   0  0  0  0  0  0  0  0  0  0  0  0
    4.8424    1.4000    0.0000 N   0  0  0  0  0  0  0  0  0  0  0  0
    6.0529    2.1000    0.0000 C   0  0  0  0  0  0  0  0  0  0  0  0
    6.0529    3.5000    0.0000 O   0  0  0  0  0  0  0  0  0  0  0  0
    7.2635    1.4000    0.0000 C   0  0  0  0  0  0  0  0  0  0  0  0
    8.4759    2.1000    0.0000 C   0  0  0  0  0  0  0  0  0  0  0  0
    9.6883    1.4000    0.0000 C   0  0  0  0  0  0  0  0  0  0  0  0
   10.9008    2.1000    0.0000 C   0  0  0  0  0  0  0  0  0  0  0  0
   12.1132    1.4000    0.0000 C   0  0  0  0  0  0  0  0  0  0  0  0
   13.3256    2.1000    0.0000 C   0  0  0  0  0  0  0  0  0  0  0  0
   14.5381    1.4000    0.0000 C   0  0  0  0  0  0  0  0  0  0  0  0
   15.7505    2.1000    0.0000 C   0  0  0  0  0  0  0  0  0  0  0  0
   16.9630    1.4000    0.0000 C   0  0  0  0  0  0  0  0  0  0  0  0
   18.1754    2.1000    0.0000 C   0  0  0  0  0  0  0  0  0  0  0  0
   19.3878    1.4000    0.0000 C   0  0  0  0  0  0  0  0  0  0  0  0
    7.2635    0.0000    0.0000 F   0  0  0  0  0  0  0  0  0  0  0  0
    7.6258    2.7523    0.0000 F   0  0  0  0  0  0  0  0  0  0  0  0
    9.1759    3.3124    0.0000 F   0  0  0  0  0  0  0  0  0  0  0  0
    8.8382    0.7477    0.0000 F   0  0  0  0  0  0  0  0  0  0  0  0
   10.0507    0.0477    0.0000 F   0  0  0  0  0  0  0  0  0  0  0  0
   10.0507    2.7523    0.0000 F   0  0  0  0  0  0  0  0  0  0  0  0
   11.6008    3.3124    0.0000 F   0  0  0  0  0  0  0  0  0  0  0  0
   11.2631    0.7477    0.0000 F   0  0  0  0  0  0  0  0  0  0  0  0
   12.4756    0.0477    0.0000 F   0  0  0  0  0  0  0  0  0  0  0  0
   12.4756    2.7523    0.0000 F   0  0  0  0  0  0  0  0  0  0  0  0
   13.6880    3.4523    0.0000 F   0  0  0  0  0  0  0  0  0  0  0  0
   13.6880    0.7477    0.0000 F   0  0  0  0  0  0  0  0  0  0  0  0
   14.9004    0.0477    0.0000 F   0  0  0  0  0  0  0  0  0  0  0  0
   14.9004    2.7523    0.0000 F   0  0  0  0  0  0  0  0  0  0  0  0
   16.1129    3.4523    0.0000 F   0  0  0  0  0  0  0  0  0  0  0  0
   16.1129    0.7477    0.0000 F   0  0  0  0  0  0  0  0  0  0  0  0
   17.3253    0.0477    0.0000 F   0  0  0  0  0  0  0  0  0  0  0  0
   16.9630    2.8000    0.0000 F   0  0  0  0  0  0  0  0  0  0  0  0
   18.1754    3.5000    0.0000 F   0  0  0  0  0  0  0  0  0  0  0  0
   18.5377    0.7477    0.0000 F   0  0  0  0  0  0  0  0  0  0  0  0
   20.6003    2.1000    0.0000 F   0  0  0  0  0  0  0  0  0  0  0  0
   20.0878    0.1876    0.0000 F   0  0  0  0  0  0  0  0  0  0  0  0
   20.7401    1.0377    0.0000 F   0  0  0  0  0  0  0  0  0  0  0  0
  1  2  1  0  0  0  0
  2  3  1  0  0  0  0
  3  4  1  0  0  0  0
  4  5  1  0  0  0  0
  5  6  1  0  0  0  0
  1  6  1  0  0  0  0
  1  7  1  0  0  0  0
  7  8  1  0  0  0  0
  5  9  1  0  0  0  0
  8  9  1  0  0  0  0
  3 10  1  0  0  0  0
  8 10  1  0  0  0  0
  8 11  1  0  0  0  0
 11 12  1  0  0  0  0
 12 13  2  0  0  0  0
 12 14  1  0  0  0  0
 14 15  1  0  0  0  0
 15 16  1  0  0  0  0
 16 17  1  0  0  0  0
 17 18  1  0  0  0  0
 18 19  1  0  0  0  0
 19 20  1  0  0  0  0
 20 21  1  0  0  0  0
 21 22  1  0  0  0  0
 22 23  1  0  0  0  0
 23 24  1  0  0  0  0
 14 25  1  0  0  0  0
 14 26  1  0  0  0  0
 15 27  1  0  0  0  0
 15 28  1  0  0  0  0
 16 29  1  0  0  0  0
 16 30  1  0  0  0  0
 17 31  1  0  0  0  0
 17 32  1  0  0  0  0
 18 33  1  0  0  0  0
 18 34  1  0  0  0  0
 19 35  1  0  0  0  0
 19 36  1  0  0  0  0
 20 37  1  0  0  0  0
 20 38  1  0  0  0  0
 21 39  1  0  0  0  0
 21 40  1  0  0  0  0
 22 41  1  0  0  0  0
 22 42  1  0  0  0  0
 23 43  1  0  0  0  0
 23 44  1  0  0  0  0
 24 45  1  0  0  0  0
 24 46  1  0  0  0  0
 24 47  1  0  0  0  0
M  END
> <Molecule Name>
903

> <CDD Number>
CDD-15591

> <Human_sEH_IC50_uM>
0.1

> <Mouse_sEH_IC50_uM>
0.05

$$$$

SketchEl molfile

 40 45  0  0  0  0  0  0  0  0999 V2000
    2.7836    4.1505    0.0000 C   0  0  0  0  0  0  0  0  0  0  0  0
    1.3836    4.1505    0.0000 C   0  0  0  0  0  0  0  0  0  0  0  0
    1.0130    2.8000    0.0000 C   0  0  0  0  0  0  0  0  0  0  0  0
    0.0000    1.8240    0.0000 C   0  0  0  0  0  0  0  0  0  0  0  0
    1.3836    1.8240    0.0000 C   0  0  0  0  0  0  0  0  0  0  0  0
    1.7500    3.1706    0.0000 C   0  0  0  0  0  0  0  0  0  0  0  0
    3.9941    3.4505    0.0000 C   0  0  0  0  0  0  0  0  0  0  0  0
    3.6319    2.1000    0.0000 C   0  0  0  0  0  0  0  0  0  0  0  0
    2.5941    1.1240    0.0000 C   0  0  0  0  0  0  0  0  0  0  0  0
    2.2235    2.1000    0.0000 C   0  0  0  0  0  0  0  0  0  0  0  0
    4.8424    1.4000    0.0000 N   0  0  0  0  0  0  0  0  0  0  0  0
    6.0529    2.1000    0.0000 C   0  0  0  0  0  0  0  0  0  0  0  0
    6.0529    3.5000    0.0000 O   0  0  0  0  0  0  0  0  0  0  0  0
    7.2635    1.4000    0.0000 N   0  0  0  0  0  0  0  0  0  0  0  0
    8.4743    2.1000    0.0000 C   0  0  0  0  0  0  0  0  0  0  0  0
    9.6848    1.4000    0.0000 C   0  0  0  0  0  0  0  0  0  0  0  0
   10.8954    2.1000    0.0000 C   0  0  0  0  0  0  0  0  0  0  0  0
   12.1059    1.4000    0.0000 C   0  0  0  0  0  0  0  0  0  0  0  0
   13.3164    2.1000    0.0000 C   0  0  0  0  0  0  0  0  0  0  0  0
   14.5289    1.4000    0.0000 C   0  0  0  0  0  0  0  0  0  0  0  0
   15.7413    2.1000    0.0000 C   0  0  0  0  0  0  0  0  0  0  0  0
   16.9537    1.4000    0.0000 C   0  0  0  0  0  0  0  0  0  0  0  0
   18.1662    2.1000    0.0000 C   0  0  0  0  0  0  0  0  0  0  0  0
   19.3786    1.4000    0.0000 C   0  0  0  0  0  0  0  0  0  0  0  0
   20.5910    2.1000    0.0000 C   0  0  0  0  0  0  0  0  0  0  0  0
   21.8035    1.4000    0.0000 C   0  0  0  0  0  0  0  0  0  0  0  0
   23.0159    2.1000    0.0000 N   0  0  0  0  0  0  0  0  0  0  0  0
   28.3130    3.0799    0.0000 C   0  0  0  0  0  0  0  0  0  0  0  0
   26.9130    3.0799    0.0000 C   0  0  0  0  0  0  0  0  0  0  0  0
   26.5424    1.7294    0.0000 C   0  0  0  0  0  0  0  0  0  0  0  0
   25.5294    0.7534    0.0000 C   0  0  0  0  0  0  0  0  0  0  0  0
   26.9130    0.7534    0.0000 C   0  0  0  0  0  0  0  0  0  0  0  0
   27.2794    2.1000    0.0000 C   0  0  0  0  0  0  0  0  0  0  0  0
   29.5235    2.3799    0.0000 C   0  0  0  0  0  0  0  0  0  0  0  0
   29.1613    1.0294    0.0000 C   0  0  0  0  0  0  0  0  0  0  0  0
   28.1235    0.0534    0.0000 C   0  0  0  0  0  0  0  0  0  0  0  0
   27.7530    1.0294    0.0000 C   0  0  0  0  0  0  0  0  0  0  0  0
   24.2283    1.4000    0.0000 C   0  0  0  0  0  0  0  0  0  0  0  0
   24.2283    0.0000    0.0000 O   0  0  0  0  0  0  0  0  0  0  0  0
   25.4408    2.1000    0.0000 N   0  0  0  0  0  0  0  0  0  0  0  0
  1  2  1  0  0  0  0
  2  3  1  0  0  0  0
  3  4  1  0  0  0  0
  4  5  1  0  0  0  0
  5  6  1  0  0  0  0
  1  6  1  0  0  0  0
  1  7  1  0  0  0  0
  7  8  1  0  0  0  0
  5  9  1  0  0  0  0
  8  9  1  0  0  0  0
  3 10  1  0  0  0  0
  8 10  1  0  0  0  0
  8 11  1  0  0  0  0
 11 12  1  0  0  0  0
 12 13  2  0  0  0  0
 12 14  1  0  0  0  0
 14 15  1  0  0  0  0
 15 16  1  0  0  0  0
 16 17  1  0  0  0  0
 17 18  1  0  0  0  0
 18 19  1  0  0  0  0
 19 20  1  0  0  0  0
 20 21  1  0  0  0  0
 21 22  1  0  0  0  0
 22 23  1  0  0  0  0
 23 24  1  0  0  0  0
 24 25  1  0  0  0  0
 25 26  1  0  0  0  0
 26 27  1  0  0  0  0
 28 29  1  0  0  0  0
 29 30  1  0  0  0  0
 30 31  1  0  0  0  0
 31 32  1  0  0  0  0
 32 33  1  0  0  0  0
 28 33  1  0  0  0  0
 28 34  1  0  0  0  0
 34 35  1  0  0  0  0
 32 36  1  0  0  0  0
 35 36  1  0  0  0  0
 30 37  1  0  0  0  0
 35 37  1  0  0  0  0
 27 38  1  0  0  0  0
 38 39  2  0  0  0  0
 38 40  1  0  0  0  0
 40 30  1  0  0  0  0
M  END
> <Molecule Name>
902

> <CDD Number>
CDD-15590

> <Human_sEH_IC50_uM>
0.44

> <Mouse_sEH_IC50_uM>
0.45

$$$$

SketchEl molfile

 31 33  0  0  0  0  0  0  0  0999 V2000
    2.7836    4.1505    0.0000 C   0  0  0  0  0  0  0  0  0  0  0  0
    1.3836    4.1505    0.0000 C   0  0  0  0  0  0  0  0  0  0  0  0
    1.0130    2.8000    0.0000 C   0  0  0  0  0  0  0  0  0  0  0  0
    0.0000    1.8240    0.0000 C   0  0  0  0  0  0  0  0  0  0  0  0
    1.3836    1.8240    0.0000 C   0  0  0  0  0  0  0  0  0  0  0  0
    1.7500    3.1706    0.0000 C   0  0  0  0  0  0  0  0  0  0  0  0
    3.9941    3.4505    0.0000 C   0  0  0  0  0  0  0  0  0  0  0  0
    3.6319    2.1000    0.0000 C   0  0  0  0  0  0  0  0  0  0  0  0
    2.5941    1.1240    0.0000 C   0  0  0  0  0  0  0  0  0  0  0  0
    2.2235    2.1000    0.0000 C   0  0  0  0  0  0  0  0  0  0  0  0
    4.8424    1.4000    0.0000 N   0  0  0  0  0  0  0  0  0  0  0  0
    6.0529    2.1000    0.0000 C   0  0  0  0  0  0  0  0  0  0  0  0
    6.0529    3.5000    0.0000 O   0  0  0  0  0  0  0  0  0  0  0  0
    7.2635    1.4000    0.0000 N   0  0  0  0  0  0  0  0  0  0  0  0
    8.4743    2.1000    0.0000 C   0  0  0  0  0  0  0  0  0  0  0  0
    9.6848    1.4000    0.0000 C   0  0  0  0  0  0  0  0  0  0  0  0
   10.8954    2.1000    0.0000 C   0  0  0  0  0  0  0  0  0  0  0  0
   12.1059    1.4000    0.0000 C   0  0  0  0  0  0  0  0  0  0  0  0
   13.3164    2.1000    0.0000 C   0  0  0  0  0  0  0  0  0  0  0  0
   14.5288    1.4000    0.0000 C   0  0  0  0  0  0  0  0  0  0  0  0
   15.7413    2.1000    0.0000 C   0  0  0  0  0  0  0  0  0  0  0  0
   16.9537    1.4000    0.0000 C   0  0  0  0  0  0  0  0  0  0  0  0
   18.1661    2.1000    0.0000 C   0  0  0  0  0  0  0  0  0  0  0  0
   19.3786    1.4000    0.0000 C   0  0  0  0  0  0  0  0  0  0  0  0
   20.5910    2.1000    0.0000 C   0  0  0  0  0  0  0  0  0  0  0  0
   21.8035    1.4000    0.0000 C   0  0  0  0  0  0  0  0  0  0  0  0
   23.0159    2.1000    0.0000 N   0  0  0  0  0  0  0  0  0  0  0  0
   24.2283    1.4000    0.0000 S   0  0  0  0  0  0  0  0  0  0  0  0
   25.4408    2.1000    0.0000 C   0  0  0  0  0  0  0  0  0  0  0  0
   24.2283    2.8000    0.0000 O   0  0  0  0  0  0  0  0  0  0  0  0
   24.2283    0.0000    0.0000 O   0  0  0  0  0  0  0  0  0  0  0  0
  1  2  1  0  0  0  0
  2  3  1  0  0  0  0
  3  4  1  0  0  0  0
  4  5  1  0  0  0  0
  5  6  1  0  0  0  0
  1  6  1  0  0  0  0
  1  7  1  0  0  0  0
  7  8  1  0  0  0  0
  5  9  1  0  0  0  0
  8  9  1  0  0  0  0
  3 10  1  0  0  0  0
  8 10  1  0  0  0  0
  8 11  1  0  0  0  0
 11 12  1  0  0  0  0
 12 13  2  0  0  0  0
 12 14  1  0  0  0  0
 14 15  1  0  0  0  0
 15 16  1  0  0  0  0
 16 17  1  0  0  0  0
 17 18  1  0  0  0  0
 18 19  1  0  0  0  0
 19 20  1  0  0  0  0
 20 21  1  0  0  0  0
 21 22  1  0  0  0  0
 22 23  1  0  0  0  0
 23 24  1  0  0  0  0
 24 25  1  0  0  0  0
 25 26  1  0  0  0  0
 26 27  1  0  0  0  0
 27 28  1  0  0  0  0
 28 29  1  0  0  0  0
 28 30  2  0  0  0  0
 28 31  2  0  0  0  0
M  END
> <Molecule Name>
901

> <CDD Number>
CDD-15587

> <Human_sEH_IC50_uM>
0.1

> <Mouse_sEH_IC50_uM>
0.07

$$$$

SketchEl molfile

 22 24  0  0  0  0  0  0  0  0999 V2000
    2.7869    3.0301    0.0000 C   0  0  0  0  0  0  0  0  0  0  0  0
    1.3852    3.0301    0.0000 C   0  0  0  0  0  0  0  0  0  0  0  0
    1.0142    1.6780    0.0000 C   0  0  0  0  0  0  0  0  0  0  0  0
    0.0000    0.7008    0.0000 C   0  0  0  0  0  0  0  0  0  0  0  0
    1.3852    0.7008    0.0000 C   0  0  0  0  0  0  0  0  0  0  0  0
    1.7521    2.0490    0.0000 C   0  0  0  0  0  0  0  0  0  0  0  0
    3.9988    2.3292    0.0000 C   0  0  0  0  0  0  0  0  0  0  0  0
    3.6362    0.9772    0.0000 C   0  0  0  0  0  0  0  0  0  0  0  0
    2.5972    0.0000    0.0000 C   0  0  0  0  0  0  0  0  0  0  0  0
    2.2262    0.9772    0.0000 C   0  0  0  0  0  0  0  0  0  0  0  0
    4.8481    0.2763    0.0000 N   0  0  0  0  0  0  0  0  0  0  0  0
    6.0601    0.9772    0.0000 C   0  0  0  0  0  0  0  0  0  0  0  0
    6.0601    2.3788    0.0000 O   0  0  0  0  0  0  0  0  0  0  0  0
    7.2721    0.2763    0.0000 N   0  0  0  0  0  0  0  0  0  0  0  0
    8.4843    0.9772    0.0000 C   0  0  0  0  0  0  0  0  0  0  0  0
    9.6963    0.2763    0.0000 C   0  0  0  0  0  0  0  0  0  0  0  0
   10.9083    0.9772    0.0000 C   0  0  0  0  0  0  0  0  0  0  0  0
   12.1202    0.2763    0.0000 C   0  0  0  0  0  0  0  0  0  0  0  0
   13.3322    0.9772    0.0000 C   0  0  0  0  0  0  0  0  0  0  0  0
   14.5460    0.2763    0.0000 C   0  0  0  0  0  0  0  0  0  0  0  0
   15.7599    0.9772    0.0000 C   0  0  0  0  0  0  0  0  0  0  0  0
   16.9738    0.2763    0.0000 C   0  0  0  0  0  0  0  0  0  0  0  0
  1  2  1  0  0  0  0
  2  3  1  0  0  0  0
  3  4  1  0  0  0  0
  4  5  1  0  0  0  0
  5  6  1  0  0  0  0
  1  6  1  0  0  0  0
  1  7  1  0  0  0  0
  7  8  1  0  0  0  0
  5  9  1  0  0  0  0
  8  9  1  0  0  0  0
  3 10  1  0  0  0  0
  8 10  1  0  0  0  0
  8 11  1  0  0  0  0
 11 12  1  0  0  0  0
 12 13  2  0  0  0  0
 12 14  1  0  0  0  0
 14 15  1  0  0  0  0
 15 16  1  0  0  0  0
 16 17  1  0  0  0  0
 17 18  1  0  0  0  0
 18 19  1  0  0  0  0
 19 20  1  0  0  0  0
 20 21  1  0  0  0  0
 21 22  3  0  0  0  0
M  END
> <Molecule Name>
900

> <CDD Number>
CDD-15586

> <Human_sEH_IC50_uM>
0.1

> <Mouse_sEH_IC50_uM>
0.05

$$$$

SketchEl molfile

 17 17  0  0  0  0  0  0  0  0999 V2000
    2.4249    0.7000    0.0000 C   0  0  0  0  0  0  0  0  0  0  0  0
    3.6354    0.0000    0.0000 N   0  0  0  0  0  0  0  0  0  0  0  0
    4.8459    0.7000    0.0000 C   0  0  0  0  0  0  0  0  0  0  0  0
    4.8459    2.1000    0.0000 O   0  0  0  0  0  0  0  0  0  0  0  0
    6.0564    0.0000    0.0000 N   0  0  0  0  0  0  0  0  0  0  0  0
    7.2673    0.7000    0.0000 C   0  0  0  0  0  0  0  0  0  0  0  0
    8.4778    0.0000    0.0000 C   0  0  0  0  0  0  0  0  0  0  0  0
    9.6883    0.7000    0.0000 C   0  0  0  0  0  0  0  0  0  0  0  0
   10.8989    0.0000    0.0000 C   0  0  0  0  0  0  0  0  0  0  0  0
   12.1094    0.7000    0.0000 C   0  0  0  0  0  0  0  0  0  0  0  0
    2.4249    2.1000    0.0000 C   0  0  0  0  0  0  0  0  0  0  0  0
    1.2124    2.8000    0.0000 C   0  0  0  0  0  0  0  0  0  0  0  0
    0.0000    2.1000    0.0000 C   0  0  0  0  0  0  0  0  0  0  0  0
    0.0000    0.7000    0.0000 C   0  0  0  0  0  0  0  0  0  0  0  0
    1.2124    0.0000    0.0000 C   0  0  0  0  0  0  0  0  0  0  0  0
   12.1094    2.1000    0.0000 O   0  0  0  0  0  0  0  0  0  0  0  0
   13.3218    0.0000    0.0000 O   0  0  0  0  0  0  0  0  0  0  0  0
  1  2  1  0  0  0  0
  2  3  1  0  0  0  0
  3  4  2  0  0  0  0
  3  5  1  0  0  0  0
  5  6  1  0  0  0  0
  6  7  1  0  0  0  0
  7  8  1  0  0  0  0
  8  9  1  0  0  0  0
  9 10  1  0  0  0  0
  1 11  1  0  0  0  0
 11 12  1  0  0  0  0
 12 13  1  0  0  0  0
 13 14  1  0  0  0  0
 14 15  1  0  0  0  0
 15  1  1  0  0  0  0
 10 16  2  0  0  0  0
 10 17  1  0  0  0  0
M  END
> <Molecule Name>
884

> <CDD Number>
CDD-15619

> <Human_sEH_IC50_uM>
2.4

> <Mouse_sEH_IC50_uM>
0.25

$$$$

SketchEl molfile

 21 23  0  0  0  0  0  0  0  0999 V2000
    2.7869    4.1554    0.0000 C   0  0  0  0  0  0  0  0  0  0  0  0
    1.3852    4.1554    0.0000 C   0  0  0  0  0  0  0  0  0  0  0  0
    1.0142    2.8033    0.0000 C   0  0  0  0  0  0  0  0  0  0  0  0
    0.0000    1.8261    0.0000 C   0  0  0  0  0  0  0  0  0  0  0  0
    1.3852    1.8261    0.0000 C   0  0  0  0  0  0  0  0  0  0  0  0
    1.7521    3.1743    0.0000 C   0  0  0  0  0  0  0  0  0  0  0  0
    3.9988    3.4545    0.0000 C   0  0  0  0  0  0  0  0  0  0  0  0
    3.6362    2.1025    0.0000 C   0  0  0  0  0  0  0  0  0  0  0  0
    2.5972    1.1253    0.0000 C   0  0  0  0  0  0  0  0  0  0  0  0
    2.2262    2.1025    0.0000 C   0  0  0  0  0  0  0  0  0  0  0  0
    4.8481    1.4017    0.0000 N   0  0  0  0  0  0  0  0  0  0  0  0
    6.0601    2.1025    0.0000 C   0  0  0  0  0  0  0  0  0  0  0  0
    6.0601    3.5041    0.0000 O   0  0  0  0  0  0  0  0  0  0  0  0
    7.2721    1.4017    0.0000 N   0  0  0  0  0  0  0  0  0  0  0  0
    8.4843    2.1025    0.0000 C   0  0  0  0  0  0  0  0  0  0  0  0
    9.6963    1.4017    0.0000 C   0  0  0  0  0  0  0  0  0  0  0  0
   10.9083    2.1025    0.0000 C   0  0  0  0  0  0  0  0  0  0  0  0
   12.1202    1.4017    0.0000 C   0  0  0  0  0  0  0  0  0  0  0  0
   13.3322    2.1025    0.0000 O   0  0  0  0  0  0  0  0  0  0  0  0
   12.1202    0.0000    0.0000 O   0  0  0  0  0  0  0  0  0  0  0  0
   14.5460    1.4017    0.0000 C   0  0  0  0  0  0  0  0  0  0  0  0
  1  2  1  0  0  0  0
  2  3  1  0  0  0  0
  3  4  1  0  0  0  0
  4  5  1  0  0  0  0
  5  6  1  0  0  0  0
  1  6  1  0  0  0  0
  1  7  1  0  0  0  0
  7  8  1  0  0  0  0
  5  9  1  0  0  0  0
  8  9  1  0  0  0  0
  3 10  1  0  0  0  0
  8 10  1  0  0  0  0
  8 11  1  0  0  0  0
 11 12  1  0  0  0  0
 12 13  2  0  0  0  0
 12 14  1  0  0  0  0
 14 15  1  0  0  0  0
 15 16  1  0  0  0  0
 16 17  1  0  0  0  0
 17 18  1  0  0  0  0
 18 19  1  0  0  0  0
 18 20  2  0  0  0  0
 19 21  1  0  0  0  0
M  END
> <Molecule Name>
883

> <CDD Number>
CDD-15618

> <Human_sEH_IC50_uM>
1.6

> <Mouse_sEH_IC50_uM>
0.1

$$$$

SketchEl molfile

 36 38  0  0  0  0  0  0  0  0999 V2000
    2.7836    4.1505    0.0000 C   0  0  0  0  0  0  0  0  0  0  0  0
    1.3836    4.1505    0.0000 C   0  0  0  0  0  0  0  0  0  0  0  0
    1.0130    2.8000    0.0000 C   0  0  0  0  0  0  0  0  0  0  0  0
    0.0000    1.8240    0.0000 C   0  0  0  0  0  0  0  0  0  0  0  0
    1.3836    1.8240    0.0000 C   0  0  0  0  0  0  0  0  0  0  0  0
    1.7500    3.1706    0.0000 C   0  0  0  0  0  0  0  0  0  0  0  0
    3.9941    3.4505    0.0000 C   0  0  0  0  0  0  0  0  0  0  0  0
    3.6319    2.1000    0.0000 C   0  0  0  0  0  0  0  0  0  0  0  0
    2.5941    1.1240    0.0000 C   0  0  0  0  0  0  0  0  0  0  0  0
    2.2235    2.1000    0.0000 C   0  0  0  0  0  0  0  0  0  0  0  0
    4.8424    1.4000    0.0000 N   0  0  0  0  0  0  0  0  0  0  0  0
    6.0529    2.1000    0.0000 C   0  0  0  0  0  0  0  0  0  0  0  0
    6.0529    3.5000    0.0000 O   0  0  0  0  0  0  0  0  0  0  0  0
    7.2635    1.4000    0.0000 N   0  0  0  0  0  0  0  0  0  0  0  0
    8.4743    2.1000    0.0000 C   0  0  0  0  0  0  0  0  0  0  0  0
    9.6848    1.4000    0.0000 C   0  0  0  0  0  0  0  0  0  0  0  0
   10.8954    2.1000    0.0000 C   0  0  0  0  0  0  0  0  0  0  0  0
   12.1059    1.4000    0.0000 C   0  0  0  0  0  0  0  0  0  0  0  0
   13.3164    2.1000    0.0000 O   0  0  0  0  0  0  0  0  0  0  0  0
   14.5288    1.4000    0.0000 C   0  0  0  0  0  0  0  0  0  0  0  0
   15.7413    2.1000    0.0000 C   0  0  0  0  0  0  0  0  0  0  0  0
   12.1059    0.0000    0.0000 O   0  0  0  0  0  0  0  0  0  0  0  0
   16.9537    1.4000    0.0000 C   0  0  0  0  0  0  0  0  0  0  0  0
   18.1661    2.1000    0.0000 C   0  0  0  0  0  0  0  0  0  0  0  0
   19.3786    1.4000    0.0000 C   0  0  0  0  0  0  0  0  0  0  0  0
   20.5910    2.1000    0.0000 C   0  0  0  0  0  0  0  0  0  0  0  0
   21.8035    1.4000    0.0000 C   0  0  0  0  0  0  0  0  0  0  0  0
   23.0159    2.1000    0.0000 C   0  0  0  0  0  0  0  0  0  0  0  0
   24.2283    1.4000    0.0000 C   0  0  0  0  0  0  0  0  0  0  0  0
   25.4408    2.1000    0.0000 C   0  0  0  0  0  0  0  0  0  0  0  0
   26.6532    1.4000    0.0000 C   0  0  0  0  0  0  0  0  0  0  0  0
   27.8656    2.1000    0.0000 C   0  0  0  0  0  0  0  0  0  0  0  0
   29.0781    1.4000    0.0000 O   0  0  0  0  0  0  0  0  0  0  0  0
   30.2905    2.1000    0.0000 C   0  0  0  0  0  0  0  0  0  0  0  0
   27.8656    3.5000    0.0000 O   0  0  0  0  0  0  0  0  0  0  0  0
   31.5029    1.4000    0.0000 C   0  0  0  0  0  0  0  0  0  0  0  0
  1  2  1  0  0  0  0
  2  3  1  0  0  0  0
  3  4  1  0  0  0  0
  4  5  1  0  0  0  0
  5  6  1  0  0  0  0
  1  6  1  0  0  0  0
  1  7  1  0  0  0  0
  7  8  1  0  0  0  0
  5  9  1  0  0  0  0
  8  9  1  0  0  0  0
  3 10  1  0  0  0  0
  8 10  1  0  0  0  0
  8 11  1  0  0  0  0
 11 12  1  0  0  0  0
 12 13  2  0  0  0  0
 12 14  1  0  0  0  0
 14 15  1  0  0  0  0
 15 16  1  0  0  0  0
 16 17  1  0  0  0  0
 17 18  1  0  0  0  0
 18 19  1  0  0  0  0
 19 20  1  0  0  0  0
 20 21  1  0  0  0  0
 18 22  2  0  0  0  0
 21 23  1  0  0  0  0
 23 24  1  0  0  0  0
 24 25  1  0  0  0  0
 25 26  1  0  0  0  0
 26 27  1  0  0  0  0
 27 28  1  0  0  0  0
 28 29  1  0  0  0  0
 29 30  1  0  0  0  0
 30 31  1  0  0  0  0
 31 32  1  0  0  0  0
 32 33  1  0  0  0  0
 33 34  1  0  0  0  0
 32 35  2  0  0  0  0
 34 36  1  0  0  0  0
M  END
> <Molecule Name>
882

> <CDD Number>
CDD-15607

> <Human_sEH_IC50_uM>
0.1

> <Mouse_sEH_IC50_uM>
0.05

$$$$

SketchEl molfile

 35 37  0  0  0  0  0  0  0  0999 V2000
    2.7836    4.1505    0.0000 C   0  0  0  0  0  0  0  0  0  0  0  0
    1.3836    4.1505    0.0000 C   0  0  0  0  0  0  0  0  0  0  0  0
    1.0130    2.8000    0.0000 C   0  0  0  0  0  0  0  0  0  0  0  0
    0.0000    1.8240    0.0000 C   0  0  0  0  0  0  0  0  0  0  0  0
    1.3836    1.8240    0.0000 C   0  0  0  0  0  0  0  0  0  0  0  0
    1.7500    3.1706    0.0000 C   0  0  0  0  0  0  0  0  0  0  0  0
    3.9941    3.4505    0.0000 C   0  0  0  0  0  0  0  0  0  0  0  0
    3.6319    2.1000    0.0000 C   0  0  0  0  0  0  0  0  0  0  0  0
    2.5941    1.1240    0.0000 C   0  0  0  0  0  0  0  0  0  0  0  0
    2.2235    2.1000    0.0000 C   0  0  0  0  0  0  0  0  0  0  0  0
    4.8424    1.4000    0.0000 N   0  0  0  0  0  0  0  0  0  0  0  0
    6.0529    2.1000    0.0000 C   0  0  0  0  0  0  0  0  0  0  0  0
    6.0529    3.5000    0.0000 O   0  0  0  0  0  0  0  0  0  0  0  0
    7.2635    1.4000    0.0000 N   0  0  0  0  0  0  0  0  0  0  0  0
    8.4743    2.1000    0.0000 C   0  0  0  0  0  0  0  0  0  0  0  0
    9.6848    1.4000    0.0000 C   0  0  0  0  0  0  0  0  0  0  0  0
   10.8954    2.1000    0.0000 C   0  0  0  0  0  0  0  0  0  0  0  0
   12.1059    1.4000    0.0000 C   0  0  0  0  0  0  0  0  0  0  0  0
   13.3164    2.1000    0.0000 O   0  0  0  0  0  0  0  0  0  0  0  0
   14.5288    1.4000    0.0000 C   0  0  0  0  0  0  0  0  0  0  0  0
   15.7413    2.1000    0.0000 C   0  0  0  0  0  0  0  0  0  0  0  0
   12.1059    0.0000    0.0000 O   0  0  0  0  0  0  0  0  0  0  0  0
   16.9537    1.4000    0.0000 C   0  0  0  0  0  0  0  0  0  0  0  0
   18.1661    2.1000    0.0000 C   0  0  0  0  0  0  0  0  0  0  0  0
   19.3786    1.4000    0.0000 C   0  0  0  0  0  0  0  0  0  0  0  0
   20.5910    2.1000    0.0000 C   0  0  0  0  0  0  0  0  0  0  0  0
   21.8035    1.4000    0.0000 C   0  0  0  0  0  0  0  0  0  0  0  0
   23.0159    2.1000    0.0000 C   0  0  0  0  0  0  0  0  0  0  0  0
   24.2283    1.4000    0.0000 C   0  0  0  0  0  0  0  0  0  0  0  0
   25.4408    2.1000    0.0000 C   0  0  0  0  0  0  0  0  0  0  0  0
   26.6532    1.4000    0.0000 C   0  0  0  0  0  0  0  0  0  0  0  0
   27.8656    2.1000    0.0000 O   0  0  0  0  0  0  0  0  0  0  0  0
   29.0781    1.4000    0.0000 C   0  0  0  0  0  0  0  0  0  0  0  0
   26.6532    0.0000    0.0000 O   0  0  0  0  0  0  0  0  0  0  0  0
   30.2905    2.1000    0.0000 C   0  0  0  0  0  0  0  0  0  0  0  0
  1  2  1  0  0  0  0
  2  3  1  0  0  0  0
  3  4  1  0  0  0  0
  4  5  1  0  0  0  0
  5  6  1  0  0  0  0
  1  6  1  0  0  0  0
  1  7  1  0  0  0  0
  7  8  1  0  0  0  0
  5  9  1  0  0  0  0
  8  9  1  0  0  0  0
  3 10  1  0  0  0  0
  8 10  1  0  0  0  0
  8 11  1  0  0  0  0
 11 12  1  0  0  0  0
 12 13  2  0  0  0  0
 12 14  1  0  0  0  0
 14 15  1  0  0  0  0
 15 16  1  0  0  0  0
 16 17  1  0  0  0  0
 17 18  1  0  0  0  0
 18 19  1  0  0  0  0
 19 20  1  0  0  0  0
 20 21  1  0  0  0  0
 18 22  2  0  0  0  0
 21 23  1  0  0  0  0
 23 24  1  0  0  0  0
 24 25  1  0  0  0  0
 25 26  1  0  0  0  0
 26 27  1  0  0  0  0
 27 28  1  0  0  0  0
 28 29  1  0  0  0  0
 29 30  1  0  0  0  0
 30 31  1  0  0  0  0
 31 32  1  0  0  0  0
 32 33  1  0  0  0  0
 31 34  2  0  0  0  0
 33 35  1  0  0  0  0
M  END
> <Molecule Name>
881

> <CDD Number>
CDD-15606

> <Human_sEH_IC50_uM>
0.1

> <Mouse_sEH_IC50_uM>
0.05

$$$$

SketchEl molfile

 34 36  0  0  0  0  0  0  0  0999 V2000
    2.7836    4.1505    0.0000 C   0  0  0  0  0  0  0  0  0  0  0  0
    1.3836    4.1505    0.0000 C   0  0  0  0  0  0  0  0  0  0  0  0
    1.0130    2.8000    0.0000 C   0  0  0  0  0  0  0  0  0  0  0  0
    0.0000    1.8240    0.0000 C   0  0  0  0  0  0  0  0  0  0  0  0
    1.3836    1.8240    0.0000 C   0  0  0  0  0  0  0  0  0  0  0  0
    1.7500    3.1706    0.0000 C   0  0  0  0  0  0  0  0  0  0  0  0
    3.9941    3.4505    0.0000 C   0  0  0  0  0  0  0  0  0  0  0  0
    3.6319    2.1000    0.0000 C   0  0  0  0  0  0  0  0  0  0  0  0
    2.5941    1.1240    0.0000 C   0  0  0  0  0  0  0  0  0  0  0  0
    2.2235    2.1000    0.0000 C   0  0  0  0  0  0  0  0  0  0  0  0
    4.8424    1.4000    0.0000 N   0  0  0  0  0  0  0  0  0  0  0  0
    6.0529    2.1000    0.0000 C   0  0  0  0  0  0  0  0  0  0  0  0
    6.0529    3.5000    0.0000 O   0  0  0  0  0  0  0  0  0  0  0  0
    7.2635    1.4000    0.0000 N   0  0  0  0  0  0  0  0  0  0  0  0
    8.4743    2.1000    0.0000 C   0  0  0  0  0  0  0  0  0  0  0  0
    9.6848    1.4000    0.0000 C   0  0  0  0  0  0  0  0  0  0  0  0
   10.8954    2.1000    0.0000 C   0  0  0  0  0  0  0  0  0  0  0  0
   12.1059    1.4000    0.0000 C   0  0  0  0  0  0  0  0  0  0  0  0
   13.3164    2.1000    0.0000 O   0  0  0  0  0  0  0  0  0  0  0  0
   14.5288    1.4000    0.0000 C   0  0  0  0  0  0  0  0  0  0  0  0
   15.7413    2.1000    0.0000 C   0  0  0  0  0  0  0  0  0  0  0  0
   12.1059    0.0000    0.0000 O   0  0  0  0  0  0  0  0  0  0  0  0
   16.9537    1.4000    0.0000 C   0  0  0  0  0  0  0  0  0  0  0  0
   18.1661    2.1000    0.0000 C   0  0  0  0  0  0  0  0  0  0  0  0
   19.3786    1.4000    0.0000 C   0  0  0  0  0  0  0  0  0  0  0  0
   20.5910    2.1000    0.0000 C   0  0  0  0  0  0  0  0  0  0  0  0
   21.8035    1.4000    0.0000 C   0  0  0  0  0  0  0  0  0  0  0  0
   23.0159    2.1000    0.0000 C   0  0  0  0  0  0  0  0  0  0  0  0
   24.2283    1.4000    0.0000 C   0  0  0  0  0  0  0  0  0  0  0  0
   25.4408    2.1000    0.0000 C   0  0  0  0  0  0  0  0  0  0  0  0
   26.6532    1.4000    0.0000 O   0  0  0  0  0  0  0  0  0  0  0  0
   25.4408    3.5000    0.0000 O   0  0  0  0  0  0  0  0  0  0  0  0
   27.8656    2.1000    0.0000 C   0  0  0  0  0  0  0  0  0  0  0  0
   29.0781    1.4000    0.0000 C   0  0  0  0  0  0  0  0  0  0  0  0
  1  2  1  0  0  0  0
  2  3  1  0  0  0  0
  3  4  1  0  0  0  0
  4  5  1  0  0  0  0
  5  6  1  0  0  0  0
  1  6  1  0  0  0  0
  1  7  1  0  0  0  0
  7  8  1  0  0  0  0
  5  9  1  0  0  0  0
  8  9  1  0  0  0  0
  3 10  1  0  0  0  0
  8 10  1  0  0  0  0
  8 11  1  0  0  0  0
 11 12  1  0  0  0  0
 12 13  2  0  0  0  0
 12 14  1  0  0  0  0
 14 15  1  0  0  0  0
 15 16  1  0  0  0  0
 16 17  1  0  0  0  0
 17 18  1  0  0  0  0
 18 19  1  0  0  0  0
 19 20  1  0  0  0  0
 20 21  1  0  0  0  0
 18 22  2  0  0  0  0
 21 23  1  0  0  0  0
 23 24  1  0  0  0  0
 24 25  1  0  0  0  0
 25 26  1  0  0  0  0
 26 27  1  0  0  0  0
 27 28  1  0  0  0  0
 28 29  1  0  0  0  0
 29 30  1  0  0  0  0
 30 31  1  0  0  0  0
 30 32  2  0  0  0  0
 31 33  1  0  0  0  0
 33 34  1  0  0  0  0
M  END
> <Molecule Name>
880

> <CDD Number>
CDD-15605

> <Human_sEH_IC50_uM>
0.1

> <Mouse_sEH_IC50_uM>
0.05

$$$$

SketchEl molfile

 32 34  0  0  0  0  0  0  0  0999 V2000
    2.7836    4.1505    0.0000 C   0  0  0  0  0  0  0  0  0  0  0  0
    1.3836    4.1505    0.0000 C   0  0  0  0  0  0  0  0  0  0  0  0
    1.0130    2.8000    0.0000 C   0  0  0  0  0  0  0  0  0  0  0  0
    0.0000    1.8240    0.0000 C   0  0  0  0  0  0  0  0  0  0  0  0
    1.3836    1.8240    0.0000 C   0  0  0  0  0  0  0  0  0  0  0  0
    1.7500    3.1706    0.0000 C   0  0  0  0  0  0  0  0  0  0  0  0
    3.9941    3.4505    0.0000 C   0  0  0  0  0  0  0  0  0  0  0  0
    3.6319    2.1000    0.0000 C   0  0  0  0  0  0  0  0  0  0  0  0
    2.5941    1.1240    0.0000 C   0  0  0  0  0  0  0  0  0  0  0  0
    2.2235    2.1000    0.0000 C   0  0  0  0  0  0  0  0  0  0  0  0
    4.8424    1.4000    0.0000 N   0  0  0  0  0  0  0  0  0  0  0  0
    6.0529    2.1000    0.0000 C   0  0  0  0  0  0  0  0  0  0  0  0
    6.0529    3.5000    0.0000 O   0  0  0  0  0  0  0  0  0  0  0  0
    7.2635    1.4000    0.0000 N   0  0  0  0  0  0  0  0  0  0  0  0
    8.4743    2.1000    0.0000 C   0  0  0  0  0  0  0  0  0  0  0  0
    9.6848    1.4000    0.0000 C   0  0  0  0  0  0  0  0  0  0  0  0
   10.8954    2.1000    0.0000 C   0  0  0  0  0  0  0  0  0  0  0  0
   12.1059    1.4000    0.0000 C   0  0  0  0  0  0  0  0  0  0  0  0
   13.3164    2.1000    0.0000 O   0  0  0  0  0  0  0  0  0  0  0  0
   14.5288    1.4000    0.0000 C   0  0  0  0  0  0  0  0  0  0  0  0
   15.7413    2.1000    0.0000 C   0  0  0  0  0  0  0  0  0  0  0  0
   12.1059    0.0000    0.0000 O   0  0  0  0  0  0  0  0  0  0  0  0
   16.9537    1.4000    0.0000 C   0  0  0  0  0  0  0  0  0  0  0  0
   18.1661    2.1000    0.0000 C   0  0  0  0  0  0  0  0  0  0  0  0
   19.3786    1.4000    0.0000 C   0  0  0  0  0  0  0  0  0  0  0  0
   20.5910    2.1000    0.0000 C   0  0  0  0  0  0  0  0  0  0  0  0
   21.8035    1.4000    0.0000 C   0  0  0  0  0  0  0  0  0  0  0  0
   23.0159    2.1000    0.0000 C   0  0  0  0  0  0  0  0  0  0  0  0
   24.2283    1.4000    0.0000 O   0  0  0  0  0  0  0  0  0  0  0  0
   25.4408    2.1000    0.0000 C   0  0  0  0  0  0  0  0  0  0  0  0
   23.0159    3.5000    0.0000 O   0  0  0  0  0  0  0  0  0  0  0  0
   26.6532    1.4000    0.0000 C   0  0  0  0  0  0  0  0  0  0  0  0
  1  2  1  0  0  0  0
  2  3  1  0  0  0  0
  3  4  1  0  0  0  0
  4  5  1  0  0  0  0
  5  6  1  0  0  0  0
  1  6  1  0  0  0  0
  1  7  1  0  0  0  0
  7  8  1  0  0  0  0
  5  9  1  0  0  0  0
  8  9  1  0  0  0  0
  3 10  1  0  0  0  0
  8 10  1  0  0  0  0
  8 11  1  0  0  0  0
 11 12  1  0  0  0  0
 12 13  2  0  0  0  0
 12 14  1  0  0  0  0
 14 15  1  0  0  0  0
 15 16  1  0  0  0  0
 16 17  1  0  0  0  0
 17 18  1  0  0  0  0
 18 19  1  0  0  0  0
 19 20  1  0  0  0  0
 20 21  1  0  0  0  0
 18 22  2  0  0  0  0
 21 23  1  0  0  0  0
 23 24  1  0  0  0  0
 24 25  1  0  0  0  0
 25 26  1  0  0  0  0
 26 27  1  0  0  0  0
 27 28  1  0  0  0  0
 28 29  1  0  0  0  0
 29 30  1  0  0  0  0
 28 31  2  0  0  0  0
 30 32  1  0  0  0  0
M  END
> <Molecule Name>
879

> <CDD Number>
CDD-15604

> <Human_sEH_IC50_uM>
0.11

> <Mouse_sEH_IC50_uM>
0.05

$$$$

SketchEl molfile

 31 33  0  0  0  0  0  0  0  0999 V2000
    2.7836    4.1505    0.0000 C   0  0  0  0  0  0  0  0  0  0  0  0
    1.3836    4.1505    0.0000 C   0  0  0  0  0  0  0  0  0  0  0  0
    1.0130    2.8000    0.0000 C   0  0  0  0  0  0  0  0  0  0  0  0
    0.0000    1.8240    0.0000 C   0  0  0  0  0  0  0  0  0  0  0  0
    1.3836    1.8240    0.0000 C   0  0  0  0  0  0  0  0  0  0  0  0
    1.7500    3.1706    0.0000 C   0  0  0  0  0  0  0  0  0  0  0  0
    3.9941    3.4505    0.0000 C   0  0  0  0  0  0  0  0  0  0  0  0
    3.6319    2.1000    0.0000 C   0  0  0  0  0  0  0  0  0  0  0  0
    2.5941    1.1240    0.0000 C   0  0  0  0  0  0  0  0  0  0  0  0
    2.2235    2.1000    0.0000 C   0  0  0  0  0  0  0  0  0  0  0  0
    4.8424    1.4000    0.0000 N   0  0  0  0  0  0  0  0  0  0  0  0
    6.0529    2.1000    0.0000 C   0  0  0  0  0  0  0  0  0  0  0  0
    6.0529    3.5000    0.0000 O   0  0  0  0  0  0  0  0  0  0  0  0
    7.2635    1.4000    0.0000 N   0  0  0  0  0  0  0  0  0  0  0  0
    8.4743    2.1000    0.0000 C   0  0  0  0  0  0  0  0  0  0  0  0
    9.6848    1.4000    0.0000 C   0  0  0  0  0  0  0  0  0  0  0  0
   10.8954    2.1000    0.0000 C   0  0  0  0  0  0  0  0  0  0  0  0
   12.1059    1.4000    0.0000 C   0  0  0  0  0  0  0  0  0  0  0  0
   13.3164    2.1000    0.0000 O   0  0  0  0  0  0  0  0  0  0  0  0
   14.5288    1.4000    0.0000 C   0  0  0  0  0  0  0  0  0  0  0  0
   15.7413    2.1000    0.0000 C   0  0  0  0  0  0  0  0  0  0  0  0
   12.1059    0.0000    0.0000 O   0  0  0  0  0  0  0  0  0  0  0  0
   16.9537    1.4000    0.0000 C   0  0  0  0  0  0  0  0  0  0  0  0
   18.1661    2.1000    0.0000 C   0  0  0  0  0  0  0  0  0  0  0  0
   19.3786    1.4000    0.0000 C   0  0  0  0  0  0  0  0  0  0  0  0
   20.5910    2.1000    0.0000 C   0  0  0  0  0  0  0  0  0  0  0  0
   21.8035    1.4000    0.0000 C   0  0  0  0  0  0  0  0  0  0  0  0
   23.0159    2.1000    0.0000 O   0  0  0  0  0  0  0  0  0  0  0  0
   21.8035    0.0000    0.0000 O   0  0  0  0  0  0  0  0  0  0  0  0
   24.2283    1.4000    0.0000 C   0  0  0  0  0  0  0  0  0  0  0  0
   25.4408    2.1000    0.0000 C   0  0  0  0  0  0  0  0  0  0  0  0
  1  2  1  0  0  0  0
  2  3  1  0  0  0  0
  3  4  1  0  0  0  0
  4  5  1  0  0  0  0
  5  6  1  0  0  0  0
  1  6  1  0  0  0  0
  1  7  1  0  0  0  0
  7  8  1  0  0  0  0
  5  9  1  0  0  0  0
  8  9  1  0  0  0  0
  3 10  1  0  0  0  0
  8 10  1  0  0  0  0
  8 11  1  0  0  0  0
 11 12  1  0  0  0  0
 12 13  2  0  0  0  0
 12 14  1  0  0  0  0
 14 15  1  0  0  0  0
 15 16  1  0  0  0  0
 16 17  1  0  0  0  0
 17 18  1  0  0  0  0
 18 19  1  0  0  0  0
 19 20  1  0  0  0  0
 20 21  1  0  0  0  0
 18 22  2  0  0  0  0
 21 23  1  0  0  0  0
 23 24  1  0  0  0  0
 24 25  1  0  0  0  0
 25 26  1  0  0  0  0
 26 27  1  0  0  0  0
 27 28  1  0  0  0  0
 27 29  2  0  0  0  0
 28 30  1  0  0  0  0
 30 31  1  0  0  0  0
M  END
> <Molecule Name>
878

> <CDD Number>
CDD-15602

> <Human_sEH_IC50_uM>
0.12

> <Mouse_sEH_IC50_uM>
0.05

$$$$

SketchEl molfile

 29 31  0  0  0  0  0  0  0  0999 V2000
    2.7836    4.1505    0.0000 C   0  0  0  0  0  0  0  0  0  0  0  0
    1.3836    4.1505    0.0000 C   0  0  0  0  0  0  0  0  0  0  0  0
    1.0130    2.8000    0.0000 C   0  0  0  0  0  0  0  0  0  0  0  0
    0.0000    1.8240    0.0000 C   0  0  0  0  0  0  0  0  0  0  0  0
    1.3836    1.8240    0.0000 C   0  0  0  0  0  0  0  0  0  0  0  0
    1.7500    3.1706    0.0000 C   0  0  0  0  0  0  0  0  0  0  0  0
    3.9941    3.4505    0.0000 C   0  0  0  0  0  0  0  0  0  0  0  0
    3.6319    2.1000    0.0000 C   0  0  0  0  0  0  0  0  0  0  0  0
    2.5941    1.1240    0.0000 C   0  0  0  0  0  0  0  0  0  0  0  0
    2.2235    2.1000    0.0000 C   0  0  0  0  0  0  0  0  0  0  0  0
    4.8424    1.4000    0.0000 N   0  0  0  0  0  0  0  0  0  0  0  0
    6.0529    2.1000    0.0000 C   0  0  0  0  0  0  0  0  0  0  0  0
    6.0529    3.5000    0.0000 O   0  0  0  0  0  0  0  0  0  0  0  0
    7.2635    1.4000    0.0000 N   0  0  0  0  0  0  0  0  0  0  0  0
    8.4743    2.1000    0.0000 C   0  0  0  0  0  0  0  0  0  0  0  0
    9.6848    1.4000    0.0000 C   0  0  0  0  0  0  0  0  0  0  0  0
   10.8954    2.1000    0.0000 C   0  0  0  0  0  0  0  0  0  0  0  0
   12.1059    1.4000    0.0000 C   0  0  0  0  0  0  0  0  0  0  0  0
   13.3164    2.1000    0.0000 O   0  0  0  0  0  0  0  0  0  0  0  0
   14.5289    1.4000    0.0000 C   0  0  0  0  0  0  0  0  0  0  0  0
   15.7413    2.1000    0.0000 C   0  0  0  0  0  0  0  0  0  0  0  0
   12.1059    0.0000    0.0000 O   0  0  0  0  0  0  0  0  0  0  0  0
   16.9537    1.4000    0.0000 C   0  0  0  0  0  0  0  0  0  0  0  0
   18.1662    2.1000    0.0000 C   0  0  0  0  0  0  0  0  0  0  0  0
   19.3786    1.4000    0.0000 C   0  0  0  0  0  0  0  0  0  0  0  0
   20.5910    2.1000    0.0000 O   0  0  0  0  0  0  0  0  0  0  0  0
   21.8035    1.4000    0.0000 C   0  0  0  0  0  0  0  0  0  0  0  0
   19.3786    0.0000    0.0000 O   0  0  0  0  0  0  0  0  0  0  0  0
   23.0159    2.1000    0.0000 C   0  0  0  0  0  0  0  0  0  0  0  0
  1  2  1  0  0  0  0
  2  3  1  0  0  0  0
  3  4  1  0  0  0  0
  4  5  1  0  0  0  0
  5  6  1  0  0  0  0
  1  6  1  0  0  0  0
  1  7  1  0  0  0  0
  7  8  1  0  0  0  0
  5  9  1  0  0  0  0
  8  9  1  0  0  0  0
  3 10  1  0  0  0  0
  8 10  1  0  0  0  0
  8 11  1  0  0  0  0
 11 12  1  0  0  0  0
 12 13  2  0  0  0  0
 12 14  1  0  0  0  0
 14 15  1  0  0  0  0
 15 16  1  0  0  0  0
 16 17  1  0  0  0  0
 17 18  1  0  0  0  0
 18 19  1  0  0  0  0
 19 20  1  0  0  0  0
 20 21  1  0  0  0  0
 18 22  2  0  0  0  0
 21 23  1  0  0  0  0
 23 24  1  0  0  0  0
 24 25  1  0  0  0  0
 25 26  1  0  0  0  0
 26 27  1  0  0  0  0
 25 28  2  0  0  0  0
 27 29  1  0  0  0  0
M  END
> <Molecule Name>
877

> <CDD Number>
CDD-15601

> <Human_sEH_IC50_uM>
0.13

> <Mouse_sEH_IC50_uM>
0.05

$$$$

SketchEl molfile

 27 29  0  0  0  0  0  0  0  0999 V2000
    2.7836    4.1505    0.0000 C   0  0  0  0  0  0  0  0  0  0  0  0
    1.3836    4.1505    0.0000 C   0  0  0  0  0  0  0  0  0  0  0  0
    1.0130    2.8000    0.0000 C   0  0  0  0  0  0  0  0  0  0  0  0
    0.0000    1.8240    0.0000 C   0  0  0  0  0  0  0  0  0  0  0  0
    1.3836    1.8240    0.0000 C   0  0  0  0  0  0  0  0  0  0  0  0
    1.7500    3.1706    0.0000 C   0  0  0  0  0  0  0  0  0  0  0  0
    3.9941    3.4505    0.0000 C   0  0  0  0  0  0  0  0  0  0  0  0
    3.6319    2.1000    0.0000 C   0  0  0  0  0  0  0  0  0  0  0  0
    2.5941    1.1240    0.0000 C   0  0  0  0  0  0  0  0  0  0  0  0
    2.2235    2.1000    0.0000 C   0  0  0  0  0  0  0  0  0  0  0  0
    4.8424    1.4000    0.0000 N   0  0  0  0  0  0  0  0  0  0  0  0
    6.0529    2.1000    0.0000 C   0  0  0  0  0  0  0  0  0  0  0  0
    6.0529    3.5000    0.0000 O   0  0  0  0  0  0  0  0  0  0  0  0
    7.2635    1.4000    0.0000 N   0  0  0  0  0  0  0  0  0  0  0  0
    8.4743    2.1000    0.0000 C   0  0  0  0  0  0  0  0  0  0  0  0
    9.6848    1.4000    0.0000 C   0  0  0  0  0  0  0  0  0  0  0  0
   10.8954    2.1000    0.0000 C   0  0  0  0  0  0  0  0  0  0  0  0
   12.1059    1.4000    0.0000 C   0  0  0  0  0  0  0  0  0  0  0  0
   13.3164    2.1000    0.0000 O   0  0  0  0  0  0  0  0  0  0  0  0
   14.5289    1.4000    0.0000 C   0  0  0  0  0  0  0  0  0  0  0  0
   15.7413    2.1000    0.0000 C   0  0  0  0  0  0  0  0  0  0  0  0
   12.1059    0.0000    0.0000 O   0  0  0  0  0  0  0  0  0  0  0  0
   16.9537    1.4000    0.0000 C   0  0  0  0  0  0  0  0  0  0  0  0
   18.1662    2.1000    0.0000 O   0  0  0  0  0  0  0  0  0  0  0  0
   19.3786    1.4000    0.0000 C   0  0  0  0  0  0  0  0  0  0  0  0
   20.5910    2.1000    0.0000 C   0  0  0  0  0  0  0  0  0  0  0  0
   16.9537    0.0000    0.0000 O   0  0  0  0  0  0  0  0  0  0  0  0
  1  2  1  0  0  0  0
  2  3  1  0  0  0  0
  3  4  1  0  0  0  0
  4  5  1  0  0  0  0
  5  6  1  0  0  0  0
  1  6  1  0  0  0  0
  1  7  1  0  0  0  0
  7  8  1  0  0  0  0
  5  9  1  0  0  0  0
  8  9  1  0  0  0  0
  3 10  1  0  0  0  0
  8 10  1  0  0  0  0
  8 11  1  0  0  0  0
 11 12  1  0  0  0  0
 12 13  2  0  0  0  0
 12 14  1  0  0  0  0
 14 15  1  0  0  0  0
 15 16  1  0  0  0  0
 16 17  1  0  0  0  0
 17 18  1  0  0  0  0
 18 19  1  0  0  0  0
 19 20  1  0  0  0  0
 20 21  1  0  0  0  0
 18 22  2  0  0  0  0
 21 23  1  0  0  0  0
 23 24  1  0  0  0  0
 24 25  1  0  0  0  0
 25 26  1  0  0  0  0
 23 27  2  0  0  0  0
M  END
> <Molecule Name>
876

> <CDD Number>
CDD-15600

> <Human_sEH_IC50_uM>
0.54

> <Mouse_sEH_IC50_uM>
0.05

$$$$

SketchEl molfile

 21 23  0  0  0  0  0  0  0  0999 V2000
    2.7869    3.0301    0.0000 C   0  0  0  0  0  0  0  0  0  0  0  0
    1.3852    3.0301    0.0000 C   0  0  0  0  0  0  0  0  0  0  0  0
    1.0142    1.6780    0.0000 C   0  0  0  0  0  0  0  0  0  0  0  0
    0.0000    0.7008    0.0000 C   0  0  0  0  0  0  0  0  0  0  0  0
    1.3852    0.7008    0.0000 C   0  0  0  0  0  0  0  0  0  0  0  0
    1.7521    2.0490    0.0000 C   0  0  0  0  0  0  0  0  0  0  0  0
    3.9988    2.3292    0.0000 C   0  0  0  0  0  0  0  0  0  0  0  0
    3.6362    0.9772    0.0000 C   0  0  0  0  0  0  0  0  0  0  0  0
    2.5972    0.0000    0.0000 C   0  0  0  0  0  0  0  0  0  0  0  0
    2.2262    0.9772    0.0000 C   0  0  0  0  0  0  0  0  0  0  0  0
    4.8481    0.2763    0.0000 N   0  0  0  0  0  0  0  0  0  0  0  0
    6.0601    0.9772    0.0000 C   0  0  0  0  0  0  0  0  0  0  0  0
    6.0601    2.3788    0.0000 O   0  0  0  0  0  0  0  0  0  0  0  0
    7.2721    0.2763    0.0000 N   0  0  0  0  0  0  0  0  0  0  0  0
    8.4843    0.9772    0.0000 C   0  0  0  0  0  0  0  0  0  0  0  0
    9.6963    0.2763    0.0000 C   0  0  0  0  0  0  0  0  0  0  0  0
   10.9083    0.9772    0.0000 C   0  0  0  0  0  0  0  0  0  0  0  0
   12.1202    0.2763    0.0000 C   0  0  0  0  0  0  0  0  0  0  0  0
   13.3341    0.9772    0.0000 C   0  0  0  0  0  0  0  0  0  0  0  0
   14.5480    0.2763    0.0000 C   0  0  0  0  0  0  0  0  0  0  0  0
   15.7618    0.9772    0.0000 O   0  0  0  0  0  0  0  0  0  0  0  0
  1  2  1  0  0  0  0
  2  3  1  0  0  0  0
  3  4  1  0  0  0  0
  4  5  1  0  0  0  0
  5  6  1  0  0  0  0
  1  6  1  0  0  0  0
  1  7  1  0  0  0  0
  7  8  1  0  0  0  0
  5  9  1  0  0  0  0
  8  9  1  0  0  0  0
  3 10  1  0  0  0  0
  8 10  1  0  0  0  0
  8 11  1  0  0  0  0
 11 12  1  0  0  0  0
 12 13  2  0  0  0  0
 12 14  1  0  0  0  0
 14 15  1  0  0  0  0
 15 16  1  0  0  0  0
 16 17  1  0  0  0  0
 17 18  1  0  0  0  0
 18 19  1  0  0  0  0
 19 20  1  0  0  0  0
 20 21  1  0  0  0  0
M  END
> <Molecule Name>
875

> <CDD Number>
CDD-15617

> <Human_sEH_IC50_uM>
0.57

> <Mouse_sEH_IC50_uM>
0.05

$$$$

SketchEl molfile

 20 22  0  0  0  0  0  0  0  0999 V2000
    2.7869    3.0301    0.0000 C   0  0  0  0  0  0  0  0  0  0  0  0
    1.3852    3.0301    0.0000 C   0  0  0  0  0  0  0  0  0  0  0  0
    1.0142    1.6780    0.0000 C   0  0  0  0  0  0  0  0  0  0  0  0
    0.0000    0.7008    0.0000 C   0  0  0  0  0  0  0  0  0  0  0  0
    1.3852    0.7008    0.0000 C   0  0  0  0  0  0  0  0  0  0  0  0
    1.7521    2.0490    0.0000 C   0  0  0  0  0  0  0  0  0  0  0  0
    3.9988    2.3292    0.0000 C   0  0  0  0  0  0  0  0  0  0  0  0
    3.6362    0.9772    0.0000 C   0  0  0  0  0  0  0  0  0  0  0  0
    2.5972    0.0000    0.0000 C   0  0  0  0  0  0  0  0  0  0  0  0
    2.2262    0.9772    0.0000 C   0  0  0  0  0  0  0  0  0  0  0  0
    4.8481    0.2763    0.0000 N   0  0  0  0  0  0  0  0  0  0  0  0
    6.0601    0.9772    0.0000 C   0  0  0  0  0  0  0  0  0  0  0  0
    6.0601    2.3788    0.0000 O   0  0  0  0  0  0  0  0  0  0  0  0
    7.2721    0.2763    0.0000 N   0  0  0  0  0  0  0  0  0  0  0  0
    8.4843    0.9772    0.0000 C   0  0  0  0  0  0  0  0  0  0  0  0
    9.6963    0.2763    0.0000 C   0  0  0  0  0  0  0  0  0  0  0  0
   10.9083    0.9772    0.0000 C   0  0  0  0  0  0  0  0  0  0  0  0
   12.1202    0.2763    0.0000 C   0  0  0  0  0  0  0  0  0  0  0  0
   13.3341    0.9772    0.0000 C   0  0  0  0  0  0  0  0  0  0  0  0
   14.5480    0.2763    0.0000 O   0  0  0  0  0  0  0  0  0  0  0  0
  1  2  1  0  0  0  0
  2  3  1  0  0  0  0
  3  4  1  0  0  0  0
  4  5  1  0  0  0  0
  5  6  1  0  0  0  0
  1  6  1  0  0  0  0
  1  7  1  0  0  0  0
  7  8  1  0  0  0  0
  5  9  1  0  0  0  0
  8  9  1  0  0  0  0
  3 10  1  0  0  0  0
  8 10  1  0  0  0  0
  8 11  1  0  0  0  0
 11 12  1  0  0  0  0
 12 13  2  0  0  0  0
 12 14  1  0  0  0  0
 14 15  1  0  0  0  0
 15 16  1  0  0  0  0
 16 17  1  0  0  0  0
 17 18  1  0  0  0  0
 18 19  1  0  0  0  0
 19 20  1  0  0  0  0
M  END
> <Molecule Name>
874

> <CDD Number>
CDD-15616

> <Human_sEH_IC50_uM>
5.3

> <Mouse_sEH_IC50_uM>
0.28

$$$$

SketchEl molfile

 19 21  0  0  0  0  0  0  0  0999 V2000
    2.7869    3.0301    0.0000 C   0  0  0  0  0  0  0  0  0  0  0  0
    1.3852    3.0301    0.0000 C   0  0  0  0  0  0  0  0  0  0  0  0
    1.0142    1.6780    0.0000 C   0  0  0  0  0  0  0  0  0  0  0  0
    0.0000    0.7008    0.0000 C   0  0  0  0  0  0  0  0  0  0  0  0
    1.3852    0.7008    0.0000 C   0  0  0  0  0  0  0  0  0  0  0  0
    1.7521    2.0490    0.0000 C   0  0  0  0  0  0  0  0  0  0  0  0
    3.9988    2.3292    0.0000 C   0  0  0  0  0  0  0  0  0  0  0  0
    3.6362    0.9772    0.0000 C   0  0  0  0  0  0  0  0  0  0  0  0
    2.5972    0.0000    0.0000 C   0  0  0  0  0  0  0  0  0  0  0  0
    2.2262    0.9772    0.0000 C   0  0  0  0  0  0  0  0  0  0  0  0
    4.8482    0.2763    0.0000 N   0  0  0  0  0  0  0  0  0  0  0  0
    6.0601    0.9772    0.0000 C   0  0  0  0  0  0  0  0  0  0  0  0
    6.0601    2.3788    0.0000 O   0  0  0  0  0  0  0  0  0  0  0  0
    7.2721    0.2763    0.0000 N   0  0  0  0  0  0  0  0  0  0  0  0
    8.4843    0.9772    0.0000 C   0  0  0  0  0  0  0  0  0  0  0  0
    9.6963    0.2763    0.0000 C   0  0  0  0  0  0  0  0  0  0  0  0
   10.9083    0.9772    0.0000 C   0  0  0  0  0  0  0  0  0  0  0  0
   12.1202    0.2763    0.0000 C   0  0  0  0  0  0  0  0  0  0  0  0
   13.3341    0.9772    0.0000 O   0  0  0  0  0  0  0  0  0  0  0  0
  1  2  1  0  0  0  0
  2  3  1  0  0  0  0
  3  4  1  0  0  0  0
  4  5  1  0  0  0  0
  5  6  1  0  0  0  0
  1  6  1  0  0  0  0
  1  7  1  0  0  0  0
  7  8  1  0  0  0  0
  5  9  1  0  0  0  0
  8  9  1  0  0  0  0
  3 10  1  0  0  0  0
  8 10  1  0  0  0  0
  8 11  1  0  0  0  0
 11 12  1  0  0  0  0
 12 13  2  0  0  0  0
 12 14  1  0  0  0  0
 14 15  1  0  0  0  0
 15 16  1  0  0  0  0
 16 17  1  0  0  0  0
 17 18  1  0  0  0  0
 18 19  1  0  0  0  0
M  END
> <Molecule Name>
873

> <CDD Number>
CDD-15615

> <Human_sEH_IC50_uM>
18.0

> <Mouse_sEH_IC50_uM>
3.1

$$$$

SketchEl molfile

 18 20  0  0  0  0  0  0  0  0999 V2000
    2.7869    3.0301    0.0000 C   0  0  0  0  0  0  0  0  0  0  0  0
    1.3852    3.0301    0.0000 C   0  0  0  0  0  0  0  0  0  0  0  0
    1.0142    1.6780    0.0000 C   0  0  0  0  0  0  0  0  0  0  0  0
    0.0000    0.7008    0.0000 C   0  0  0  0  0  0  0  0  0  0  0  0
    1.3852    0.7008    0.0000 C   0  0  0  0  0  0  0  0  0  0  0  0
    1.7521    2.0490    0.0000 C   0  0  0  0  0  0  0  0  0  0  0  0
    3.9988    2.3292    0.0000 C   0  0  0  0  0  0  0  0  0  0  0  0
    3.6362    0.9772    0.0000 C   0  0  0  0  0  0  0  0  0  0  0  0
    2.5972    0.0000    0.0000 C   0  0  0  0  0  0  0  0  0  0  0  0
    2.2262    0.9772    0.0000 C   0  0  0  0  0  0  0  0  0  0  0  0
    4.8481    0.2763    0.0000 N   0  0  0  0  0  0  0  0  0  0  0  0
    6.0601    0.9772    0.0000 C   0  0  0  0  0  0  0  0  0  0  0  0
    6.0601    2.3788    0.0000 O   0  0  0  0  0  0  0  0  0  0  0  0
    7.2721    0.2763    0.0000 N   0  0  0  0  0  0  0  0  0  0  0  0
    8.4843    0.9772    0.0000 C   0  0  0  0  0  0  0  0  0  0  0  0
    9.6963    0.2763    0.0000 C   0  0  0  0  0  0  0  0  0  0  0  0
   10.9083    0.9772    0.0000 C   0  0  0  0  0  0  0  0  0  0  0  0
   12.1202    0.2763    0.0000 O   0  0  0  0  0  0  0  0  0  0  0  0
  1  2  1  0  0  0  0
  2  3  1  0  0  0  0
  3  4  1  0  0  0  0
  4  5  1  0  0  0  0
  5  6  1  0  0  0  0
  1  6  1  0  0  0  0
  1  7  1  0  0  0  0
  7  8  1  0  0  0  0
  5  9  1  0  0  0  0
  8  9  1  0  0  0  0
  3 10  1  0  0  0  0
  8 10  1  0  0  0  0
  8 11  1  0  0  0  0
 11 12  1  0  0  0  0
 12 13  2  0  0  0  0
 12 14  1  0  0  0  0
 14 15  1  0  0  0  0
 15 16  1  0  0  0  0
 16 17  1  0  0  0  0
 17 18  1  0  0  0  0
M  END
> <Molecule Name>
872

> <CDD Number>
CDD-15614

> <Human_sEH_IC50_uM>
47.0

> <Mouse_sEH_IC50_uM>
18.8

$$$$

SketchEl molfile

 17 19  0  0  0  0  0  0  0  0999 V2000
    2.7869    3.0301    0.0000 C   0  0  0  0  0  0  0  0  0  0  0  0
    1.3852    3.0301    0.0000 C   0  0  0  0  0  0  0  0  0  0  0  0
    1.0142    1.6780    0.0000 C   0  0  0  0  0  0  0  0  0  0  0  0
    0.0000    0.7008    0.0000 C   0  0  0  0  0  0  0  0  0  0  0  0
    1.3852    0.7008    0.0000 C   0  0  0  0  0  0  0  0  0  0  0  0
    1.7521    2.0490    0.0000 C   0  0  0  0  0  0  0  0  0  0  0  0
    3.9988    2.3292    0.0000 C   0  0  0  0  0  0  0  0  0  0  0  0
    3.6362    0.9772    0.0000 C   0  0  0  0  0  0  0  0  0  0  0  0
    2.5972    0.0000    0.0000 C   0  0  0  0  0  0  0  0  0  0  0  0
    2.2262    0.9772    0.0000 C   0  0  0  0  0  0  0  0  0  0  0  0
    4.8481    0.2763    0.0000 N   0  0  0  0  0  0  0  0  0  0  0  0
    6.0601    0.9772    0.0000 C   0  0  0  0  0  0  0  0  0  0  0  0
    6.0601    2.3788    0.0000 O   0  0  0  0  0  0  0  0  0  0  0  0
    7.2721    0.2763    0.0000 N   0  0  0  0  0  0  0  0  0  0  0  0
    8.4843    0.9772    0.0000 C   0  0  0  0  0  0  0  0  0  0  0  0
    9.6963    0.2763    0.0000 C   0  0  0  0  0  0  0  0  0  0  0  0
   10.9083    0.9772    0.0000 O   0  0  0  0  0  0  0  0  0  0  0  0
  1  2  1  0  0  0  0
  2  3  1  0  0  0  0
  3  4  1  0  0  0  0
  4  5  1  0  0  0  0
  5  6  1  0  0  0  0
  1  6  1  0  0  0  0
  1  7  1  0  0  0  0
  7  8  1  0  0  0  0
  5  9  1  0  0  0  0
  8  9  1  0  0  0  0
  3 10  1  0  0  0  0
  8 10  1  0  0  0  0
  8 11  1  0  0  0  0
 11 12  1  0  0  0  0
 12 13  2  0  0  0  0
 12 14  1  0  0  0  0
 14 15  1  0  0  0  0
 15 16  1  0  0  0  0
 16 17  1  0  0  0  0
M  END
> <Molecule Name>
871

> <CDD Number>
CDD-15613

> <Human_sEH_IC50_uM>
100.0

> <Mouse_sEH_IC50_uM>
100.0

$$$$

SketchEl molfile

 24 26  0  0  0  0  0  0  0  0999 V2000
    2.7836    3.0265    0.0000 C   0  0  0  0  0  0  0  0  0  0  0  0
    1.3836    3.0265    0.0000 C   0  0  0  0  0  0  0  0  0  0  0  0
    1.0130    1.6760    0.0000 C   0  0  0  0  0  0  0  0  0  0  0  0
    0.0000    0.7000    0.0000 C   0  0  0  0  0  0  0  0  0  0  0  0
    1.3836    0.7000    0.0000 C   0  0  0  0  0  0  0  0  0  0  0  0
    1.7500    2.0466    0.0000 C   0  0  0  0  0  0  0  0  0  0  0  0
    3.9941    2.3265    0.0000 C   0  0  0  0  0  0  0  0  0  0  0  0
    3.6319    0.9760    0.0000 C   0  0  0  0  0  0  0  0  0  0  0  0
    2.5941    0.0000    0.0000 C   0  0  0  0  0  0  0  0  0  0  0  0
    2.2235    0.9760    0.0000 C   0  0  0  0  0  0  0  0  0  0  0  0
    4.8424    0.2760    0.0000 N   0  0  0  0  0  0  0  0  0  0  0  0
    6.0529    0.9760    0.0000 C   0  0  0  0  0  0  0  0  0  0  0  0
    6.0529    2.3760    0.0000 O   0  0  0  0  0  0  0  0  0  0  0  0
    7.2635    0.2760    0.0000 N   0  0  0  0  0  0  0  0  0  0  0  0
    8.4743    0.9760    0.0000 C   0  0  0  0  0  0  0  0  0  0  0  0
    9.6848    0.2760    0.0000 C   0  0  0  0  0  0  0  0  0  0  0  0
   10.8954    0.9760    0.0000 C   0  0  0  0  0  0  0  0  0  0  0  0
   12.1059    0.2760    0.0000 C   0  0  0  0  0  0  0  0  0  0  0  0
   13.3183    0.9760    0.0000 C   0  0  0  0  0  0  0  0  0  0  0  0
   14.5308    0.2760    0.0000 C   0  0  0  0  0  0  0  0  0  0  0  0
   15.7432    0.9760    0.0000 O   0  0  0  0  0  0  0  0  0  0  0  0
   16.9556    0.2760    0.0000 C   0  0  0  0  0  0  0  0  0  0  0  0
   18.1681    0.9760    0.0000 C   0  0  0  0  0  0  0  0  0  0  0  0
   19.3805    0.2760    0.0000 C   0  0  0  0  0  0  0  0  0  0  0  0
  1  2  1  0  0  0  0
  2  3  1  0  0  0  0
  3  4  1  0  0  0  0
  4  5  1  0  0  0  0
  5  6  1  0  0  0  0
  1  6  1  0  0  0  0
  1  7  1  0  0  0  0
  7  8  1  0  0  0  0
  5  9  1  0  0  0  0
  8  9  1  0  0  0  0
  3 10  1  0  0  0  0
  8 10  1  0  0  0  0
  8 11  1  0  0  0  0
 11 12  1  0  0  0  0
 12 13  2  0  0  0  0
 12 14  1  0  0  0  0
 14 15  1  0  0  0  0
 15 16  1  0  0  0  0
 16 17  1  0  0  0  0
 17 18  1  0  0  0  0
 18 19  1  0  0  0  0
 19 20  1  0  0  0  0
 20 21  1  0  0  0  0
 21 22  1  0  0  0  0
 22 23  1  0  0  0  0
 23 24  1  0  0  0  0
M  END
> <Molecule Name>
870

> <CDD Number>
CDD-15611

> <Human_sEH_IC50_uM>
0.1

> <Mouse_sEH_IC50_uM>
0.05

$$$$

SketchEl molfile

 24 26  0  0  0  0  0  0  0  0999 V2000
    2.7836    3.0265    0.0000 C   0  0  0  0  0  0  0  0  0  0  0  0
    1.3836    3.0265    0.0000 C   0  0  0  0  0  0  0  0  0  0  0  0
    1.0130    1.6760    0.0000 C   0  0  0  0  0  0  0  0  0  0  0  0
    0.0000    0.7000    0.0000 C   0  0  0  0  0  0  0  0  0  0  0  0
    1.3836    0.7000    0.0000 C   0  0  0  0  0  0  0  0  0  0  0  0
    1.7500    2.0466    0.0000 C   0  0  0  0  0  0  0  0  0  0  0  0
    3.9941    2.3265    0.0000 C   0  0  0  0  0  0  0  0  0  0  0  0
    3.6319    0.9760    0.0000 C   0  0  0  0  0  0  0  0  0  0  0  0
    2.5941    0.0000    0.0000 C   0  0  0  0  0  0  0  0  0  0  0  0
    2.2235    0.9760    0.0000 C   0  0  0  0  0  0  0  0  0  0  0  0
    4.8424    0.2760    0.0000 N   0  0  0  0  0  0  0  0  0  0  0  0
    6.0529    0.9760    0.0000 C   0  0  0  0  0  0  0  0  0  0  0  0
    6.0529    2.3760    0.0000 O   0  0  0  0  0  0  0  0  0  0  0  0
    7.2635    0.2760    0.0000 N   0  0  0  0  0  0  0  0  0  0  0  0
    8.4743    0.9760    0.0000 C   0  0  0  0  0  0  0  0  0  0  0  0
    9.6848    0.2760    0.0000 C   0  0  0  0  0  0  0  0  0  0  0  0
   10.8954    0.9760    0.0000 C   0  0  0  0  0  0  0  0  0  0  0  0
   12.1059    0.2760    0.0000 C   0  0  0  0  0  0  0  0  0  0  0  0
   13.3183    0.9760    0.0000 C   0  0  0  0  0  0  0  0  0  0  0  0
   14.5308    0.2760    0.0000 O   0  0  0  0  0  0  0  0  0  0  0  0
   15.7432    0.9760    0.0000 C   0  0  0  0  0  0  0  0  0  0  0  0
   16.9556    0.2760    0.0000 C   0  0  0  0  0  0  0  0  0  0  0  0
   18.1681    0.9760    0.0000 C   0  0  0  0  0  0  0  0  0  0  0  0
   19.3805    0.2760    0.0000 C   0  0  0  0  0  0  0  0  0  0  0  0
  1  2  1  0  0  0  0
  2  3  1  0  0  0  0
  3  4  1  0  0  0  0
  4  5  1  0  0  0  0
  5  6  1  0  0  0  0
  1  6  1  0  0  0  0
  1  7  1  0  0  0  0
  7  8  1  0  0  0  0
  5  9  1  0  0  0  0
  8  9  1  0  0  0  0
  3 10  1  0  0  0  0
  8 10  1  0  0  0  0
  8 11  1  0  0  0  0
 11 12  1  0  0  0  0
 12 13  2  0  0  0  0
 12 14  1  0  0  0  0
 14 15  1  0  0  0  0
 15 16  1  0  0  0  0
 16 17  1  0  0  0  0
 17 18  1  0  0  0  0
 18 19  1  0  0  0  0
 19 20  1  0  0  0  0
 20 21  1  0  0  0  0
 21 22  1  0  0  0  0
 22 23  1  0  0  0  0
 23 24  1  0  0  0  0
M  END
> <Molecule Name>
869

> <CDD Number>
CDD-15610

> <Human_sEH_IC50_uM>
0.12

> <Mouse_sEH_IC50_uM>
0.05

$$$$

SketchEl molfile

 24 26  0  0  0  0  0  0  0  0999 V2000
    2.7836    3.0265    0.0000 C   0  0  0  0  0  0  0  0  0  0  0  0
    1.3836    3.0265    0.0000 C   0  0  0  0  0  0  0  0  0  0  0  0
    1.0130    1.6760    0.0000 C   0  0  0  0  0  0  0  0  0  0  0  0
    0.0000    0.7000    0.0000 C   0  0  0  0  0  0  0  0  0  0  0  0
    1.3836    0.7000    0.0000 C   0  0  0  0  0  0  0  0  0  0  0  0
    1.7500    2.0466    0.0000 C   0  0  0  0  0  0  0  0  0  0  0  0
    3.9941    2.3265    0.0000 C   0  0  0  0  0  0  0  0  0  0  0  0
    3.6319    0.9760    0.0000 C   0  0  0  0  0  0  0  0  0  0  0  0
    2.5941    0.0000    0.0000 C   0  0  0  0  0  0  0  0  0  0  0  0
    2.2235    0.9760    0.0000 C   0  0  0  0  0  0  0  0  0  0  0  0
    4.8424    0.2760    0.0000 N   0  0  0  0  0  0  0  0  0  0  0  0
    6.0529    0.9760    0.0000 C   0  0  0  0  0  0  0  0  0  0  0  0
    6.0529    2.3760    0.0000 O   0  0  0  0  0  0  0  0  0  0  0  0
    7.2635    0.2760    0.0000 N   0  0  0  0  0  0  0  0  0  0  0  0
    8.4743    0.9760    0.0000 C   0  0  0  0  0  0  0  0  0  0  0  0
    9.6848    0.2760    0.0000 C   0  0  0  0  0  0  0  0  0  0  0  0
   10.8954    0.9760    0.0000 C   0  0  0  0  0  0  0  0  0  0  0  0
   12.1059    0.2760    0.0000 C   0  0  0  0  0  0  0  0  0  0  0  0
   13.3183    0.9760    0.0000 O   0  0  0  0  0  0  0  0  0  0  0  0
   14.5308    0.2760    0.0000 C   0  0  0  0  0  0  0  0  0  0  0  0
   15.7432    0.9760    0.0000 C   0  0  0  0  0  0  0  0  0  0  0  0
   16.9556    0.2760    0.0000 C   0  0  0  0  0  0  0  0  0  0  0  0
   18.1681    0.9760    0.0000 C   0  0  0  0  0  0  0  0  0  0  0  0
   19.3805    0.2760    0.0000 C   0  0  0  0  0  0  0  0  0  0  0  0
  1  2  1  0  0  0  0
  2  3  1  0  0  0  0
  3  4  1  0  0  0  0
  4  5  1  0  0  0  0
  5  6  1  0  0  0  0
  1  6  1  0  0  0  0
  1  7  1  0  0  0  0
  7  8  1  0  0  0  0
  5  9  1  0  0  0  0
  8  9  1  0  0  0  0
  3 10  1  0  0  0  0
  8 10  1  0  0  0  0
  8 11  1  0  0  0  0
 11 12  1  0  0  0  0
 12 13  2  0  0  0  0
 12 14  1  0  0  0  0
 14 15  1  0  0  0  0
 15 16  1  0  0  0  0
 16 17  1  0  0  0  0
 17 18  1  0  0  0  0
 18 19  1  0  0  0  0
 19 20  1  0  0  0  0
 20 21  1  0  0  0  0
 21 22  1  0  0  0  0
 22 23  1  0  0  0  0
 23 24  1  0  0  0  0
M  END
> <Molecule Name>
868

> <CDD Number>
CDD-15609

> <Human_sEH_IC50_uM>
0.17

> <Mouse_sEH_IC50_uM>
0.05

$$$$

SketchEl molfile

 24 26  0  0  0  0  0  0  0  0999 V2000
    2.7836    3.0265    0.0000 C   0  0  0  0  0  0  0  0  0  0  0  0
    1.3836    3.0265    0.0000 C   0  0  0  0  0  0  0  0  0  0  0  0
    1.0130    1.6760    0.0000 C   0  0  0  0  0  0  0  0  0  0  0  0
    0.0000    0.7000    0.0000 C   0  0  0  0  0  0  0  0  0  0  0  0
    1.3836    0.7000    0.0000 C   0  0  0  0  0  0  0  0  0  0  0  0
    1.7500    2.0466    0.0000 C   0  0  0  0  0  0  0  0  0  0  0  0
    3.9941    2.3265    0.0000 C   0  0  0  0  0  0  0  0  0  0  0  0
    3.6319    0.9760    0.0000 C   0  0  0  0  0  0  0  0  0  0  0  0
    2.5941    0.0000    0.0000 C   0  0  0  0  0  0  0  0  0  0  0  0
    2.2235    0.9760    0.0000 C   0  0  0  0  0  0  0  0  0  0  0  0
    4.8424    0.2760    0.0000 N   0  0  0  0  0  0  0  0  0  0  0  0
    6.0529    0.9760    0.0000 C   0  0  0  0  0  0  0  0  0  0  0  0
    6.0529    2.3760    0.0000 O   0  0  0  0  0  0  0  0  0  0  0  0
    7.2635    0.2760    0.0000 N   0  0  0  0  0  0  0  0  0  0  0  0
    8.4743    0.9760    0.0000 C   0  0  0  0  0  0  0  0  0  0  0  0
    9.6848    0.2760    0.0000 C   0  0  0  0  0  0  0  0  0  0  0  0
   10.8954    0.9760    0.0000 C   0  0  0  0  0  0  0  0  0  0  0  0
   12.1059    0.2760    0.0000 O   0  0  0  0  0  0  0  0  0  0  0  0
   13.3183    0.9760    0.0000 C   0  0  0  0  0  0  0  0  0  0  0  0
   14.5308    0.2760    0.0000 C   0  0  0  0  0  0  0  0  0  0  0  0
   15.7432    0.9760    0.0000 C   0  0  0  0  0  0  0  0  0  0  0  0
   16.9556    0.2760    0.0000 C   0  0  0  0  0  0  0  0  0  0  0  0
   18.1681    0.9760    0.0000 C   0  0  0  0  0  0  0  0  0  0  0  0
   19.3805    0.2760    0.0000 C   0  0  0  0  0  0  0  0  0  0  0  0
  1  2  1  0  0  0  0
  2  3  1  0  0  0  0
  3  4  1  0  0  0  0
  4  5  1  0  0  0  0
  5  6  1  0  0  0  0
  1  6  1  0  0  0  0
  1  7  1  0  0  0  0
  7  8  1  0  0  0  0
  5  9  1  0  0  0  0
  8  9  1  0  0  0  0
  3 10  1  0  0  0  0
  8 10  1  0  0  0  0
  8 11  1  0  0  0  0
 11 12  1  0  0  0  0
 12 13  2  0  0  0  0
 12 14  1  0  0  0  0
 14 15  1  0  0  0  0
 15 16  1  0  0  0  0
 16 17  1  0  0  0  0
 17 18  1  0  0  0  0
 18 19  1  0  0  0  0
 19 20  1  0  0  0  0
 20 21  1  0  0  0  0
 21 22  1  0  0  0  0
 22 23  1  0  0  0  0
 23 24  1  0  0  0  0
M  END
> <Molecule Name>
867

> <CDD Number>
CDD-15599

> <Human_sEH_IC50_uM>
0.22

> <Mouse_sEH_IC50_uM>
0.05

$$$$

SketchEl molfile

 24 26  0  0  0  0  0  0  0  0999 V2000
    2.7836    3.0265    0.0000 C   0  0  0  0  0  0  0  0  0  0  0  0
    1.3836    3.0265    0.0000 C   0  0  0  0  0  0  0  0  0  0  0  0
    1.0130    1.6760    0.0000 C   0  0  0  0  0  0  0  0  0  0  0  0
    0.0000    0.7000    0.0000 C   0  0  0  0  0  0  0  0  0  0  0  0
    1.3836    0.7000    0.0000 C   0  0  0  0  0  0  0  0  0  0  0  0
    1.7500    2.0466    0.0000 C   0  0  0  0  0  0  0  0  0  0  0  0
    3.9941    2.3265    0.0000 C   0  0  0  0  0  0  0  0  0  0  0  0
    3.6319    0.9760    0.0000 C   0  0  0  0  0  0  0  0  0  0  0  0
    2.5941    0.0000    0.0000 C   0  0  0  0  0  0  0  0  0  0  0  0
    2.2235    0.9760    0.0000 C   0  0  0  0  0  0  0  0  0  0  0  0
    4.8424    0.2760    0.0000 N   0  0  0  0  0  0  0  0  0  0  0  0
    6.0529    0.9760    0.0000 C   0  0  0  0  0  0  0  0  0  0  0  0
    6.0529    2.3760    0.0000 O   0  0  0  0  0  0  0  0  0  0  0  0
    7.2635    0.2760    0.0000 N   0  0  0  0  0  0  0  0  0  0  0  0
    8.4743    0.9760    0.0000 C   0  0  0  0  0  0  0  0  0  0  0  0
    9.6848    0.2760    0.0000 C   0  0  0  0  0  0  0  0  0  0  0  0
   10.8954    0.9760    0.0000 O   0  0  0  0  0  0  0  0  0  0  0  0
   12.1059    0.2760    0.0000 C   0  0  0  0  0  0  0  0  0  0  0  0
   13.3183    0.9760    0.0000 C   0  0  0  0  0  0  0  0  0  0  0  0
   14.5308    0.2760    0.0000 C   0  0  0  0  0  0  0  0  0  0  0  0
   15.7432    0.9760    0.0000 C   0  0  0  0  0  0  0  0  0  0  0  0
   16.9556    0.2760    0.0000 C   0  0  0  0  0  0  0  0  0  0  0  0
   18.1681    0.9760    0.0000 C   0  0  0  0  0  0  0  0  0  0  0  0
   19.3805    0.2760    0.0000 C   0  0  0  0  0  0  0  0  0  0  0  0
  1  2  1  0  0  0  0
  2  3  1  0  0  0  0
  3  4  1  0  0  0  0
  4  5  1  0  0  0  0
  5  6  1  0  0  0  0
  1  6  1  0  0  0  0
  1  7  1  0  0  0  0
  7  8  1  0  0  0  0
  5  9  1  0  0  0  0
  8  9  1  0  0  0  0
  3 10  1  0  0  0  0
  8 10  1  0  0  0  0
  8 11  1  0  0  0  0
 11 12  1  0  0  0  0
 12 13  2  0  0  0  0
 12 14  1  0  0  0  0
 14 15  1  0  0  0  0
 15 16  1  0  0  0  0
 16 17  1  0  0  0  0
 17 18  1  0  0  0  0
 18 19  1  0  0  0  0
 19 20  1  0  0  0  0
 20 21  1  0  0  0  0
 21 22  1  0  0  0  0
 22 23  1  0  0  0  0
 23 24  1  0  0  0  0
M  END
> <Molecule Name>
866

> <CDD Number>
CDD-15608

> <Human_sEH_IC50_uM>
1.5

> <Mouse_sEH_IC50_uM>
0.06

$$$$

SketchEl molfile

 23 26  0  0  0  0  0  0  0  0999 V2000
    2.7836    3.0265    0.0000 C   0  0  0  0  0  0  0  0  0  0  0  0
    1.3836    3.0265    0.0000 C   0  0  0  0  0  0  0  0  0  0  0  0
    1.0130    1.6760    0.0000 C   0  0  0  0  0  0  0  0  0  0  0  0
    0.0000    0.7000    0.0000 C   0  0  0  0  0  0  0  0  0  0  0  0
    1.3836    0.7000    0.0000 C   0  0  0  0  0  0  0  0  0  0  0  0
    1.7500    2.0466    0.0000 C   0  0  0  0  0  0  0  0  0  0  0  0
    3.9941    2.3265    0.0000 C   0  0  0  0  0  0  0  0  0  0  0  0
    3.6319    0.9760    0.0000 C   0  0  0  0  0  0  0  0  0  0  0  0
    2.5941    0.0000    0.0000 C   0  0  0  0  0  0  0  0  0  0  0  0
    2.2235    0.9760    0.0000 C   0  0  0  0  0  0  0  0  0  0  0  0
    4.8424    0.2760    0.0000 N   0  0  0  0  0  0  0  0  0  0  0  0
    6.0529    0.9760    0.0000 C   0  0  0  0  0  0  0  0  0  0  0  0
    6.0529    2.3760    0.0000 O   0  0  0  0  0  0  0  0  0  0  0  0
    7.2635    0.2760    0.0000 N   0  0  0  0  0  0  0  0  0  0  0  0
    8.4743    0.9760    0.0000 C   0  0  0  0  0  0  0  0  0  0  0  0
    9.6867    0.2760    0.0000 C   0  0  0  0  0  0  0  0  0  0  0  0
   10.8992    0.9760    0.0000 C   0  0  0  0  0  0  0  0  0  0  0  0
   10.8992    2.3760    0.0000 C   0  0  0  0  0  0  0  0  0  0  0  0
    9.6867    3.0760    0.0000 C   0  0  0  0  0  0  0  0  0  0  0  0
    8.4743    2.3760    0.0000 C   0  0  0  0  0  0  0  0  0  0  0  0
   12.1116    3.0760    0.0000 C   0  0  0  0  0  0  0  0  0  0  0  0
   12.1116    4.4760    0.0000 O   0  0  0  0  0  0  0  0  0  0  0  0
   13.3241    2.3760    0.0000 O   0  0  0  0  0  0  0  0  0  0  0  0
  1  2  1  0  0  0  0
  2  3  1  0  0  0  0
  3  4  1  0  0  0  0
  4  5  1  0  0  0  0
  5  6  1  0  0  0  0
  1  6  1  0  0  0  0
  1  7  1  0  0  0  0
  7  8  1  0  0  0  0
  5  9  1  0  0  0  0
  8  9  1  0  0  0  0
  3 10  1  0  0  0  0
  8 10  1  0  0  0  0
  8 11  1  0  0  0  0
 11 12  1  0  0  0  0
 12 13  2  0  0  0  0
 12 14  1  0  0  0  0
 14 15  1  0  0  0  0
 15 16  1  0  0  0  0
 16 17  1  0  0  0  0
 17 18  1  0  0  0  0
 18 19  1  0  0  0  0
 19 20  1  0  0  0  0
 20 15  1  0  0  0  0
 18 21  1  0  0  0  0
 21 22  2  0  0  0  0
 21 23  1  0  0  0  0
M  END
> <Molecule Name>
864

> <CDD Number>
CDD-15612

> <Human_sEH_IC50_uM>
2.4

> <Mouse_sEH_IC50_uM>
0.06

$$$$

SketchEl molfile

 28 31  0  0  0  0  0  0  0  0999 V2000
    2.7836    3.0265    0.0000 C   0  0  0  0  0  0  0  0  0  0  0  0
    1.3836    3.0265    0.0000 C   0  0  0  0  0  0  0  0  0  0  0  0
    1.0130    1.6760    0.0000 C   0  0  0  0  0  0  0  0  0  0  0  0
    0.0000    0.7000    0.0000 C   0  0  0  0  0  0  0  0  0  0  0  0
    1.3836    0.7000    0.0000 C   0  0  0  0  0  0  0  0  0  0  0  0
    1.7500    2.0466    0.0000 C   0  0  0  0  0  0  0  0  0  0  0  0
    3.9941    2.3265    0.0000 C   0  0  0  0  0  0  0  0  0  0  0  0
    3.6319    0.9760    0.0000 C   0  0  0  0  0  0  0  0  0  0  0  0
    2.5941    0.0000    0.0000 C   0  0  0  0  0  0  0  0  0  0  0  0
    2.2235    0.9760    0.0000 C   0  0  0  0  0  0  0  0  0  0  0  0
    4.8424    0.2760    0.0000 N   0  0  0  0  0  0  0  0  0  0  0  0
    6.0529    0.9760    0.0000 C   0  0  0  0  0  0  0  0  0  0  0  0
    6.0529    2.3760    0.0000 O   0  0  0  0  0  0  0  0  0  0  0  0
    7.2635    0.2760    0.0000 N   0  0  0  0  0  0  0  0  0  0  0  0
    8.4743    0.9760    0.0000 C   0  0  0  0  0  0  0  0  0  0  0  0
    9.6867    0.2760    0.0000 C   0  0  0  0  0  0  0  0  0  0  0  0
   10.8992    0.9760    0.0000 C   0  0  0  0  0  0  0  0  0  0  0  0
   10.8992    2.3760    0.0000 C   0  0  0  0  0  0  0  0  0  0  0  0
    9.6867    3.0760    0.0000 C   0  0  0  0  0  0  0  0  0  0  0  0
    8.4743    2.3760    0.0000 C   0  0  0  0  0  0  0  0  0  0  0  0
   12.1116    3.0760    0.0000 C   0  0  0  0  0  0  0  0  0  0  0  0
   12.1116    4.4760    0.0000 O   0  0  0  0  0  0  0  0  0  0  0  0
   13.3241    2.3760    0.0000 O   0  0  0  0  0  0  0  0  0  0  0  0
   14.5365    3.0760    0.0000 C   0  0  0  0  0  0  0  0  0  0  0  0
   15.7489    2.3760    0.0000 C   0  0  0  0  0  0  0  0  0  0  0  0
   16.9614    3.0760    0.0000 C   0  0  0  0  0  0  0  0  0  0  0  0
   18.1738    2.3760    0.0000 C   0  0  0  0  0  0  0  0  0  0  0  0
   19.3862    3.0760    0.0000 C   0  0  0  0  0  0  0  0  0  0  0  0
  1  2  1  0  0  0  0
  2  3  1  0  0  0  0
  3  4  1  0  0  0  0
  4  5  1  0  0  0  0
  5  6  1  0  0  0  0
  1  6  1  0  0  0  0
  1  7  1  0  0  0  0
  7  8  1  0  0  0  0
  5  9  1  0  0  0  0
  8  9  1  0  0  0  0
  3 10  1  0  0  0  0
  8 10  1  0  0  0  0
  8 11  1  0  0  0  0
 11 12  1  0  0  0  0
 12 13  2  0  0  0  0
 12 14  1  0  0  0  0
 14 15  1  0  0  0  0
 15 16  1  0  0  0  0
 16 17  1  0  0  0  0
 17 18  1  0  0  0  0
 18 19  1  0  0  0  0
 19 20  1  0  0  0  0
 20 15  1  0  0  0  0
 18 21  1  0  0  0  0
 21 22  2  0  0  0  0
 21 23  1  0  0  0  0
 23 24  1  0  0  0  0
 24 25  1  0  0  0  0
 25 26  1  0  0  0  0
 26 27  1  0  0  0  0
 27 28  1  0  0  0  0
M  END
> <Molecule Name>
863

> <CDD Number>
CDD-15596

> <Human_sEH_IC50_uM>
0.12

> <Mouse_sEH_IC50_uM>
0.05

$$$$

SketchEl molfile

 28 31  0  0  0  0  0  0  0  0999 V2000
    2.7836    3.0265    0.0000 C   0  0  0  0  0  0  0  0  0  0  0  0
    1.3836    3.0265    0.0000 C   0  0  0  0  0  0  0  0  0  0  0  0
    1.0130    1.6760    0.0000 C   0  0  0  0  0  0  0  0  0  0  0  0
    0.0000    0.7000    0.0000 C   0  0  0  0  0  0  0  0  0  0  0  0
    1.3836    0.7000    0.0000 C   0  0  0  0  0  0  0  0  0  0  0  0
    1.7500    2.0466    0.0000 C   0  0  0  0  0  0  0  0  0  0  0  0
    3.9941    2.3265    0.0000 C   0  0  0  0  0  0  0  0  0  0  0  0
    3.6319    0.9760    0.0000 C   0  0  0  0  0  0  0  0  0  0  0  0
    2.5941    0.0000    0.0000 C   0  0  0  0  0  0  0  0  0  0  0  0
    2.2235    0.9760    0.0000 C   0  0  0  0  0  0  0  0  0  0  0  0
    4.8424    0.2760    0.0000 N   0  0  0  0  0  0  0  0  0  0  0  0
    6.0529    0.9760    0.0000 C   0  0  0  0  0  0  0  0  0  0  0  0
    6.0529    2.3760    0.0000 O   0  0  0  0  0  0  0  0  0  0  0  0
    7.2635    0.2760    0.0000 N   0  0  0  0  0  0  0  0  0  0  0  0
    8.4743    0.9760    0.0000 C   0  0  0  0  0  0  0  0  0  0  0  0
    9.6867    0.2760    0.0000 C   0  0  0  0  0  0  0  0  0  0  0  0
   10.8992    0.9760    0.0000 C   0  0  0  0  0  0  0  0  0  0  0  0
   10.8992    2.3760    0.0000 C   0  0  0  0  0  0  0  0  0  0  0  0
    9.6867    3.0760    0.0000 C   0  0  0  0  0  0  0  0  0  0  0  0
    8.4743    2.3760    0.0000 C   0  0  0  0  0  0  0  0  0  0  0  0
   12.1116    3.0760    0.0000 C   0  0  0  0  0  0  0  0  0  0  0  0
   12.1116    4.4760    0.0000 O   0  0  0  0  0  0  0  0  0  0  0  0
   13.3241    2.3760    0.0000 O   0  0  0  0  0  0  0  0  0  0  0  0
   14.5365    3.0760    0.0000 C   0  0  0  0  0  0  0  0  0  0  0  0
   15.7489    2.3760    0.0000 C   0  0  0  0  0  0  0  0  0  0  0  0
   16.9614    3.0760    0.0000 C   0  0  0  0  0  0  0  0  0  0  0  0
   18.1738    2.3760    0.0000 C   0  0  0  0  0  0  0  0  0  0  0  0
   19.3862    3.0760    0.0000 C   0  0  0  0  0  0  0  0  0  0  0  0
  1  2  1  0  0  0  0
  2  3  1  0  0  0  0
  3  4  1  0  0  0  0
  4  5  1  0  0  0  0
  5  6  1  0  0  0  0
  1  6  1  0  0  0  0
  1  7  1  0  0  0  0
  7  8  1  0  0  0  0
  5  9  1  0  0  0  0
  8  9  1  0  0  0  0
  3 10  1  0  0  0  0
  8 10  1  0  0  0  0
  8 11  1  0  0  0  0
 11 12  1  0  0  0  0
 12 13  2  0  0  0  0
 12 14  1  0  0  0  0
 14 15  1  0  0  0  0
 15 16  2  0  0  0  0
 16 17  1  0  0  0  0
 17 18  2  0  0  0  0
 18 19  1  0  0  0  0
 19 20  2  0  0  0  0
 20 15  1  0  0  0  0
 18 21  1  0  0  0  0
 21 22  2  0  0  0  0
 21 23  1  0  0  0  0
 23 24  1  0  0  0  0
 24 25  1  0  0  0  0
 25 26  1  0  0  0  0
 26 27  1  0  0  0  0
 27 28  1  0  0  0  0
M  END
> <Molecule Name>
860

> <CDD Number>
CDD-15598

> <Human_sEH_IC50_uM>
0.1

> <Mouse_sEH_IC50_uM>
0.05

$$$$

SketchEl molfile

 28 31  0  0  0  0  0  0  0  0999 V2000
    2.7836    4.1505    0.0000 C   0  0  0  0  0  0  0  0  0  0  0  0
    1.3836    4.1505    0.0000 C   0  0  0  0  0  0  0  0  0  0  0  0
    1.0130    2.8000    0.0000 C   0  0  0  0  0  0  0  0  0  0  0  0
    0.0000    1.8240    0.0000 C   0  0  0  0  0  0  0  0  0  0  0  0
    1.3836    1.8240    0.0000 C   0  0  0  0  0  0  0  0  0  0  0  0
    1.7500    3.1706    0.0000 C   0  0  0  0  0  0  0  0  0  0  0  0
    3.9941    3.4505    0.0000 C   0  0  0  0  0  0  0  0  0  0  0  0
    3.6319    2.1000    0.0000 C   0  0  0  0  0  0  0  0  0  0  0  0
    2.5941    1.1240    0.0000 C   0  0  0  0  0  0  0  0  0  0  0  0
    2.2235    2.1000    0.0000 C   0  0  0  0  0  0  0  0  0  0  0  0
    4.8424    1.4000    0.0000 N   0  0  0  0  0  0  0  0  0  0  0  0
    6.0529    2.1000    0.0000 C   0  0  0  0  0  0  0  0  0  0  0  0
    6.0529    3.5000    0.0000 O   0  0  0  0  0  0  0  0  0  0  0  0
    7.2635    1.4000    0.0000 N   0  0  0  0  0  0  0  0  0  0  0  0
    8.4743    2.1000    0.0000 C   0  0  0  0  0  0  0  0  0  0  0  0
    9.6867    1.4000    0.0000 C   0  0  0  0  0  0  0  0  0  0  0  0
   10.8992    2.1000    0.0000 C   0  0  0  0  0  0  0  0  0  0  0  0
   10.8992    3.5000    0.0000 C   0  0  0  0  0  0  0  0  0  0  0  0
    9.6867    4.2000    0.0000 C   0  0  0  0  0  0  0  0  0  0  0  0
    8.4743    3.5000    0.0000 C   0  0  0  0  0  0  0  0  0  0  0  0
   12.1116    1.4000    0.0000 C   0  0  0  0  0  0  0  0  0  0  0  0
   13.3241    2.1000    0.0000 O   0  0  0  0  0  0  0  0  0  0  0  0
   14.5365    1.4000    0.0000 C   0  0  0  0  0  0  0  0  0  0  0  0
   15.7489    2.1000    0.0000 C   0  0  0  0  0  0  0  0  0  0  0  0
   12.1116    0.0000    0.0000 O   0  0  0  0  0  0  0  0  0  0  0  0
   16.9614    1.4000    0.0000 C   0  0  0  0  0  0  0  0  0  0  0  0
   18.1738    2.1000    0.0000 C   0  0  0  0  0  0  0  0  0  0  0  0
   19.3862    1.4000    0.0000 C   0  0  0  0  0  0  0  0  0  0  0  0
  1  2  1  0  0  0  0
  2  3  1  0  0  0  0
  3  4  1  0  0  0  0
  4  5  1  0  0  0  0
  5  6  1  0  0  0  0
  1  6  1  0  0  0  0
  1  7  1  0  0  0  0
  7  8  1  0  0  0  0
  5  9  1  0  0  0  0
  8  9  1  0  0  0  0
  3 10  1  0  0  0  0
  8 10  1  0  0  0  0
  8 11  1  0  0  0  0
 11 12  1  0  0  0  0
 12 13  2  0  0  0  0
 12 14  1  0  0  0  0
 14 15  1  0  0  0  0
 15 16  2  0  0  0  0
 16 17  1  0  0  0  0
 17 18  2  0  0  0  0
 18 19  1  0  0  0  0
 19 20  2  0  0  0  0
 20 15  1  0  0  0  0
 17 21  1  0  0  0  0
 21 22  1  0  0  0  0
 22 23  1  0  0  0  0
 23 24  1  0  0  0  0
 21 25  2  0  0  0  0
 24 26  1  0  0  0  0
 26 27  1  0  0  0  0
 27 28  1  0  0  0  0
M  END
> <Molecule Name>
859

> <CDD Number>
CDD-15597

> <Human_sEH_IC50_uM>
0.1

> <Mouse_sEH_IC50_uM>
0.05

$$$$

SketchEl molfile

 28 30  0  0  0  0  0  0  0  0999 V2000
    0.9568    2.1993    0.0000 C   0  0  0  0  0  0  0  0  0  0  0  0
    0.0000    0.5421    0.0000 C   0  0  0  0  0  0  0  0  0  0  0  0
    1.8400    1.0679    0.0000 C   0  0  0  0  0  0  0  0  0  0  0  0
    3.6912    0.5421    0.0000 C   0  0  0  0  0  0  0  0  0  0  0  0
    4.6482    2.1993    0.0000 C   0  0  0  0  0  0  0  0  0  0  0  0
    2.8081    1.6736    0.0000 C   0  0  0  0  0  0  0  0  0  0  0  0
    1.8400    2.9816    0.0000 C   0  0  0  0  0  0  0  0  0  0  0  0
    0.9568    4.1130    0.0000 C   0  0  0  0  0  0  0  0  0  0  0  0
    2.7969    4.6389    0.0000 C   0  0  0  0  0  0  0  0  0  0  0  0
    4.6482    4.1130    0.0000 C   0  0  0  0  0  0  0  0  0  0  0  0
    5.8607    1.4993    0.0000 N   0  0  0  0  0  0  0  0  0  0  0  0
    6.8506    2.1000    0.0000 C   0  0  0  0  0  0  0  0  0  0  0  0
    8.0630    1.4000    0.0000 N   0  0  0  0  0  0  0  0  0  0  0  0
    6.8506    3.5000    0.0000 O   0  0  0  0  0  0  0  0  0  0  0  0
    9.2755    2.1000    0.0000 C   0  0  0  0  0  0  0  0  0  0  0  0
   10.4879    1.4000    0.0000 C   0  0  0  0  0  0  0  0  0  0  0  0
   11.7003    2.1000    0.0000 C   0  0  0  0  0  0  0  0  0  0  0  0
   12.9128    1.4000    0.0000 C   0  0  0  0  0  0  0  0  0  0  0  0
   14.1252    2.1000    0.0000 O   0  0  0  0  0  0  0  0  0  0  0  0
   12.9128    0.0000    0.0000 O   0  0  0  0  0  0  0  0  0  0  0  0
   15.3377    1.4000    0.0000 C   0  0  0  0  0  0  0  0  0  0  0  0
   16.5501    2.1000    0.0000 C   0  0  0  0  0  0  0  0  0  0  0  0
   17.7625    1.4000    0.0000 C   0  0  0  0  0  0  0  0  0  0  0  0
   18.9750    2.1000    0.0000 C   0  0  0  0  0  0  0  0  0  0  0  0
   20.1874    1.4000    0.0000 O   0  0  0  0  0  0  0  0  0  0  0  0
   18.9750    3.5000    0.0000 O   0  0  0  0  0  0  0  0  0  0  0  0
   21.3998    2.1000    0.0000 C   0  0  0  0  0  0  0  0  0  0  0  0
   22.6123    1.4000    0.0000 C   0  0  0  0  0  0  0  0  0  0  0  0
  1  2  1  0  0  0  0
  2  3  1  0  0  0  0
  3  4  1  0  0  0  0
  4  5  1  0  0  0  0
  5  6  1  0  0  0  0
  6  1  1  0  0  0  0
  3  7  1  0  0  0  0
  1  8  1  0  0  0  0
  7  9  1  0  0  0  0
  8  9  1  0  0  0  0
  5 10  1  0  0  0  0
 10  9  1  0  0  0  0
  5 11  1  0  0  0  0
 11 12  1  0  0  0  0
 12 13  1  0  0  0  0
 12 14  2  0  0  0  0
 13 15  1  0  0  0  0
 15 16  1  0  0  0  0
 16 17  1  0  0  0  0
 17 18  1  0  0  0  0
 18 19  1  0  0  0  0
 18 20  2  0  0  0  0
 19 21  1  0  0  0  0
 21 22  1  0  0  0  0
 22 23  1  0  0  0  0
 23 24  1  0  0  0  0
 24 25  1  0  0  0  0
 24 26  2  0  0  0  0
 25 27  1  0  0  0  0
 27 28  1  0  0  0  0
M  END
> <Molecule Name>
858

> <CDD Number>
CDD-15785

> <Human_sEH_IC50_uM>
0.12

> <Mouse_sEH_IC50_uM>
0.05

$$$$

SketchEl molfile

 26 28  0  0  0  0  0  0  0  0999 V2000
    0.9568    2.1993    0.0000 C   0  0  0  0  0  0  0  0  0  0  0  0
    0.0000    0.5421    0.0000 C   0  0  0  0  0  0  0  0  0  0  0  0
    1.8400    1.0679    0.0000 C   0  0  0  0  0  0  0  0  0  0  0  0
    3.6912    0.5421    0.0000 C   0  0  0  0  0  0  0  0  0  0  0  0
    4.6482    2.1993    0.0000 C   0  0  0  0  0  0  0  0  0  0  0  0
    2.8081    1.6736    0.0000 C   0  0  0  0  0  0  0  0  0  0  0  0
    1.8400    2.9816    0.0000 C   0  0  0  0  0  0  0  0  0  0  0  0
    0.9568    4.1130    0.0000 C   0  0  0  0  0  0  0  0  0  0  0  0
    2.7969    4.6389    0.0000 C   0  0  0  0  0  0  0  0  0  0  0  0
    4.6482    4.1130    0.0000 C   0  0  0  0  0  0  0  0  0  0  0  0
    5.8607    1.4993    0.0000 N   0  0  0  0  0  0  0  0  0  0  0  0
    6.8506    2.1000    0.0000 C   0  0  0  0  0  0  0  0  0  0  0  0
    8.0630    1.4000    0.0000 N   0  0  0  0  0  0  0  0  0  0  0  0
    6.8506    3.5000    0.0000 O   0  0  0  0  0  0  0  0  0  0  0  0
    9.2755    2.1000    0.0000 C   0  0  0  0  0  0  0  0  0  0  0  0
   10.4879    1.4000    0.0000 C   0  0  0  0  0  0  0  0  0  0  0  0
   11.7003    2.1000    0.0000 C   0  0  0  0  0  0  0  0  0  0  0  0
   12.9128    1.4000    0.0000 C   0  0  0  0  0  0  0  0  0  0  0  0
   12.9128    0.0000    0.0000 O   0  0  0  0  0  0  0  0  0  0  0  0
   14.1252    2.1000    0.0000 O   0  0  0  0  0  0  0  0  0  0  0  0
   15.3377    1.4000    0.0000 C   0  0  0  0  0  0  0  0  0  0  0  0
   16.5501    2.1000    0.0000 C   0  0  0  0  0  0  0  0  0  0  0  0
   17.7625    1.4000    0.0000 O   0  0  0  0  0  0  0  0  0  0  0  0
   16.5501    3.5000    0.0000 O   0  0  0  0  0  0  0  0  0  0  0  0
   18.9750    2.1000    0.0000 C   0  0  0  0  0  0  0  0  0  0  0  0
   20.1874    1.4000    0.0000 C   0  0  0  0  0  0  0  0  0  0  0  0
  1  2  1  0  0  0  0
  2  3  1  0  0  0  0
  3  4  1  0  0  0  0
  4  5  1  0  0  0  0
  5  6  1  0  0  0  0
  6  1  1  0  0  0  0
  3  7  1  0  0  0  0
  1  8  1  0  0  0  0
  7  9  1  0  0  0  0
  8  9  1  0  0  0  0
  5 10  1  0  0  0  0
 10  9  1  0  0  0  0
  5 11  1  0  0  0  0
 11 12  1  0  0  0  0
 12 13  1  0  0  0  0
 12 14  2  0  0  0  0
 13 15  1  0  0  0  0
 15 16  1  0  0  0  0
 16 17  1  0  0  0  0
 17 18  1  0  0  0  0
 18 19  2  0  0  0  0
 18 20  1  0  0  0  0
 20 21  1  0  0  0  0
 21 22  1  0  0  0  0
 22 23  1  0  0  0  0
 22 24  2  0  0  0  0
 23 25  1  0  0  0  0
 25 26  1  0  0  0  0
M  END
> <Molecule Name>
857

> <CDD Number>
CDD-15784

> <Human_sEH_IC50_uM>
0.39

> <Mouse_sEH_IC50_uM>
0.05

$$$$

SketchEl molfile

 27 29  0  0  0  0  0  0  0  0999 V2000
    0.9568    1.6573    0.0000 C   0  0  0  0  0  0  0  0  0  0  0  0
    0.0000    0.0000    0.0000 C   0  0  0  0  0  0  0  0  0  0  0  0
    1.8400    0.5259    0.0000 C   0  0  0  0  0  0  0  0  0  0  0  0
    3.6912    0.0000    0.0000 C   0  0  0  0  0  0  0  0  0  0  0  0
    4.6482    1.6573    0.0000 C   0  0  0  0  0  0  0  0  0  0  0  0
    2.8081    1.1316    0.0000 C   0  0  0  0  0  0  0  0  0  0  0  0
    1.8400    2.4395    0.0000 C   0  0  0  0  0  0  0  0  0  0  0  0
    0.9568    3.5709    0.0000 C   0  0  0  0  0  0  0  0  0  0  0  0
    2.7969    4.0968    0.0000 C   0  0  0  0  0  0  0  0  0  0  0  0
    4.6482    3.5709    0.0000 C   0  0  0  0  0  0  0  0  0  0  0  0
    5.8607    0.9573    0.0000 N   0  0  0  0  0  0  0  0  0  0  0  0
    6.8506    1.5579    0.0000 C   0  0  0  0  0  0  0  0  0  0  0  0
    8.0630    0.8579    0.0000 N   0  0  0  0  0  0  0  0  0  0  0  0
    6.8506    2.9579    0.0000 O   0  0  0  0  0  0  0  0  0  0  0  0
    9.2755    1.5579    0.0000 C   0  0  0  0  0  0  0  0  0  0  0  0
   10.4879    0.8579    0.0000 C   0  0  0  0  0  0  0  0  0  0  0  0
   11.7003    1.5579    0.0000 C   0  0  0  0  0  0  0  0  0  0  0  0
   12.9128    0.8579    0.0000 C   0  0  0  0  0  0  0  0  0  0  0  0
   14.1252    1.5579    0.0000 C   0  0  0  0  0  0  0  0  0  0  0  0
   15.3377    0.8579    0.0000 C   0  0  0  0  0  0  0  0  0  0  0  0
   16.5501    1.5579    0.0000 O   0  0  0  0  0  0  0  0  0  0  0  0
   17.7625    0.8579    0.0000 C   0  0  0  0  0  0  0  0  0  0  0  0
   18.9750    1.5579    0.0000 C   0  0  0  0  0  0  0  0  0  0  0  0
   20.1874    0.8579    0.0000 O   0  0  0  0  0  0  0  0  0  0  0  0
   18.9750    2.9579    0.0000 O   0  0  0  0  0  0  0  0  0  0  0  0
   21.3998    1.5579    0.0000 C   0  0  0  0  0  0  0  0  0  0  0  0
   22.6123    0.8579    0.0000 C   0  0  0  0  0  0  0  0  0  0  0  0
  1  2  1  0  0  0  0
  2  3  1  0  0  0  0
  3  4  1  0  0  0  0
  4  5  1  0  0  0  0
  5  6  1  0  0  0  0
  6  1  1  0  0  0  0
  3  7  1  0  0  0  0
  1  8  1  0  0  0  0
  7  9  1  0  0  0  0
  8  9  1  0  0  0  0
  5 10  1  0  0  0  0
 10  9  1  0  0  0  0
  5 11  1  0  0  0  0
 11 12  1  0  0  0  0
 12 13  1  0  0  0  0
 12 14  2  0  0  0  0
 13 15  1  0  0  0  0
 15 16  1  0  0  0  0
 16 17  1  0  0  0  0
 17 18  1  0  0  0  0
 18 19  1  0  0  0  0
 19 20  1  0  0  0  0
 20 21  1  0  0  0  0
 21 22  1  0  0  0  0
 22 23  1  0  0  0  0
 23 24  1  0  0  0  0
 23 25  2  0  0  0  0
 24 26  1  0  0  0  0
 26 27  1  0  0  0  0
M  END
> <Molecule Name>
856

> <CDD Number>
CDD-15783

> <Human_sEH_IC50_uM>
1.27

> <Mouse_sEH_IC50_uM>
0.22

$$$$

SketchEl molfile

 31 33  0  0  0  0  0  0  0  0999 V2000
    0.9568    2.1993    0.0000 C   0  0  0  0  0  0  0  0  0  0  0  0
    0.0000    0.5421    0.0000 C   0  0  0  0  0  0  0  0  0  0  0  0
    1.8400    1.0679    0.0000 C   0  0  0  0  0  0  0  0  0  0  0  0
    3.6912    0.5421    0.0000 C   0  0  0  0  0  0  0  0  0  0  0  0
    4.6482    2.1993    0.0000 C   0  0  0  0  0  0  0  0  0  0  0  0
    2.8081    1.6736    0.0000 C   0  0  0  0  0  0  0  0  0  0  0  0
    1.8400    2.9816    0.0000 C   0  0  0  0  0  0  0  0  0  0  0  0
    0.9568    4.1130    0.0000 C   0  0  0  0  0  0  0  0  0  0  0  0
    2.7969    4.6389    0.0000 C   0  0  0  0  0  0  0  0  0  0  0  0
    4.6482    4.1130    0.0000 C   0  0  0  0  0  0  0  0  0  0  0  0
    5.8607    1.4993    0.0000 N   0  0  0  0  0  0  0  0  0  0  0  0
    6.8506    2.1000    0.0000 C   0  0  0  0  0  0  0  0  0  0  0  0
    8.0630    1.4000    0.0000 N   0  0  0  0  0  0  0  0  0  0  0  0
    6.8506    3.5000    0.0000 O   0  0  0  0  0  0  0  0  0  0  0  0
    9.2755    2.1000    0.0000 C   0  0  0  0  0  0  0  0  0  0  0  0
   10.4879    1.4000    0.0000 C   0  0  0  0  0  0  0  0  0  0  0  0
   11.7003    2.1000    0.0000 C   0  0  0  0  0  0  0  0  0  0  0  0
   12.9128    1.4000    0.0000 C   0  0  0  0  0  0  0  0  0  0  0  0
   14.1252    2.1000    0.0000 O   0  0  0  0  0  0  0  0  0  0  0  0
   12.9128    0.0000    0.0000 O   0  0  0  0  0  0  0  0  0  0  0  0
   15.3377    1.4000    0.0000 C   0  0  0  0  0  0  0  0  0  0  0  0
   16.5501    2.1000    0.0000 C   0  0  0  0  0  0  0  0  0  0  0  0
   15.3377    0.0000    0.0000 C   0  0  0  0  0  0  0  0  0  0  0  0
   17.7625    1.4000    0.0000 C   0  0  0  0  0  0  0  0  0  0  0  0
   18.9750    2.1000    0.0000 C   0  0  0  0  0  0  0  0  0  0  0  0
   20.1874    1.4000    0.0000 C   0  0  0  0  0  0  0  0  0  0  0  0
   21.3998    2.1000    0.0000 C   0  0  0  0  0  0  0  0  0  0  0  0
   22.6123    1.4000    0.0000 O   0  0  0  0  0  0  0  0  0  0  0  0
   21.3998    3.5000    0.0000 O   0  0  0  0  0  0  0  0  0  0  0  0
   23.8247    2.1000    0.0000 C   0  0  0  0  0  0  0  0  0  0  0  0
   25.0371    1.4000    0.0000 C   0  0  0  0  0  0  0  0  0  0  0  0
  1  2  1  0  0  0  0
  2  3  1  0  0  0  0
  3  4  1  0  0  0  0
  4  5  1  0  0  0  0
  5  6  1  0  0  0  0
  6  1  1  0  0  0  0
  3  7  1  0  0  0  0
  1  8  1  0  0  0  0
  7  9  1  0  0  0  0
  8  9  1  0  0  0  0
  5 10  1  0  0  0  0
 10  9  1  0  0  0  0
  5 11  1  0  0  0  0
 11 12  1  0  0  0  0
 12 13  1  0  0  0  0
 12 14  2  0  0  0  0
 13 15  1  0  0  0  0
 15 16  1  0  0  0  0
 16 17  1  0  0  0  0
 17 18  1  0  0  0  0
 18 19  1  0  0  0  0
 18 20  2  0  0  0  0
 19 21  1  0  0  0  0
 21 22  1  0  0  0  0
 21 23  1  0  0  0  0
 22 24  1  0  0  0  0
 24 25  1  0  0  0  0
 25 26  1  0  0  0  0
 26 27  1  0  0  0  0
 27 28  1  0  0  0  0
 27 29  2  0  0  0  0
 28 30  1  0  0  0  0
 30 31  1  0  0  0  0
M  END
> <Molecule Name>
855

> <CDD Number>
CDD-15782

> <Human_sEH_IC50_uM>
0.16

> <Mouse_sEH_IC50_uM>
0.05

$$$$

SketchEl molfile

 18 18  0  0  0  0  0  0  0  0999 V2000
    0.9900    1.6833    0.0000 C   0  0  0  0  0  0  0  0  0  0  0  0
    0.0000    0.6934    0.0000 C   0  0  0  0  0  0  0  0  0  0  0  0
    1.3998    0.6934    0.0000 C   0  0  0  0  0  0  0  0  0  0  0  0
    2.6161    0.0000    0.0000 C   0  0  0  0  0  0  0  0  0  0  0  0
    3.6062    0.9899    0.0000 C   0  0  0  0  0  0  0  0  0  0  0  0
    2.2063    0.9899    0.0000 C   0  0  0  0  0  0  0  0  0  0  0  0
    4.8186    0.2899    0.0000 N   0  0  0  0  0  0  0  0  0  0  0  0
    5.8086    0.8906    0.0000 C   0  0  0  0  0  0  0  0  0  0  0  0
    7.0210    0.1906    0.0000 N   0  0  0  0  0  0  0  0  0  0  0  0
    5.8086    2.2906    0.0000 O   0  0  0  0  0  0  0  0  0  0  0  0
    8.0110    0.7912    0.0000 C   0  0  0  0  0  0  0  0  0  0  0  0
    9.2234    0.0912    0.0000 C   0  0  0  0  0  0  0  0  0  0  0  0
   10.4358    0.7912    0.0000 C   0  0  0  0  0  0  0  0  0  0  0  0
   11.6483    0.0912    0.0000 C   0  0  0  0  0  0  0  0  0  0  0  0
   12.8607    0.7912    0.0000 C   0  0  0  0  0  0  0  0  0  0  0  0
   14.0731    0.0912    0.0000 O   0  0  0  0  0  0  0  0  0  0  0  0
   12.8607    2.1912    0.0000 O   0  0  0  0  0  0  0  0  0  0  0  0
   15.2856    0.7912    0.0000 C   0  0  0  0  0  0  0  0  0  0  0  0
  1  2  1  0  0  0  0
  2  3  1  0  0  0  0
  3  4  1  0  0  0  0
  4  5  1  0  0  0  0
  5  6  1  0  0  0  0
  6  1  1  0  0  0  0
  5  7  1  0  0  0  0
  7  8  1  0  0  0  0
  8  9  1  0  0  0  0
  8 10  2  0  0  0  0
  9 11  1  0  0  0  0
 11 12  1  0  0  0  0
 12 13  1  0  0  0  0
 13 14  1  0  0  0  0
 14 15  1  0  0  0  0
 15 16  1  0  0  0  0
 15 17  2  0  0  0  0
 16 18  1  0  0  0  0
M  END
> <Molecule Name>
854

> <CDD Number>
CDD-15781

> <Human_sEH_IC50_uM>
5.0

> <Mouse_sEH_IC50_uM>
0.13

$$$$

SketchEl molfile

 31 34  0  0  0  0  0  0  0  0999 V2000
    0.9568    4.2993    0.0000 C   0  0  0  0  0  0  0  0  0  0  0  0
    0.0000    2.6421    0.0000 C   0  0  0  0  0  0  0  0  0  0  0  0
    1.8400    3.1679    0.0000 C   0  0  0  0  0  0  0  0  0  0  0  0
    3.6912    2.6421    0.0000 C   0  0  0  0  0  0  0  0  0  0  0  0
    4.6482    4.2993    0.0000 C   0  0  0  0  0  0  0  0  0  0  0  0
    2.8081    3.7736    0.0000 C   0  0  0  0  0  0  0  0  0  0  0  0
    1.8400    5.0816    0.0000 C   0  0  0  0  0  0  0  0  0  0  0  0
    0.9568    6.2130    0.0000 C   0  0  0  0  0  0  0  0  0  0  0  0
    2.7969    6.7389    0.0000 C   0  0  0  0  0  0  0  0  0  0  0  0
    4.6482    6.2130    0.0000 C   0  0  0  0  0  0  0  0  0  0  0  0
    5.8607    3.5993    0.0000 N   0  0  0  0  0  0  0  0  0  0  0  0
    6.8506    4.2000    0.0000 C   0  0  0  0  0  0  0  0  0  0  0  0
    8.0630    3.5000    0.0000 N   0  0  0  0  0  0  0  0  0  0  0  0
    6.8506    5.6000    0.0000 O   0  0  0  0  0  0  0  0  0  0  0  0
    9.2755    4.2000    0.0000 C   0  0  0  0  0  0  0  0  0  0  0  0
   10.4879    3.5000    0.0000 C   0  0  0  0  0  0  0  0  0  0  0  0
   11.7003    4.2000    0.0000 C   0  0  0  0  0  0  0  0  0  0  0  0
   12.9128    3.5000    0.0000 C   0  0  0  0  0  0  0  0  0  0  0  0
   14.1252    4.2000    0.0000 O   0  0  0  0  0  0  0  0  0  0  0  0
   12.9128    2.1000    0.0000 O   0  0  0  0  0  0  0  0  0  0  0  0
   15.3377    3.5000    0.0000 C   0  0  0  0  0  0  0  0  0  0  0  0
   15.3377    2.1000    0.0000 C   0  0  0  0  0  0  0  0  0  0  0  0
   16.5501    1.4000    0.0000 C   0  0  0  0  0  0  0  0  0  0  0  0
   17.7625    2.1000    0.0000 C   0  0  0  0  0  0  0  0  0  0  0  0
   17.7625    3.5000    0.0000 C   0  0  0  0  0  0  0  0  0  0  0  0
   16.5501    4.2000    0.0000 C   0  0  0  0  0  0  0  0  0  0  0  0
   18.9750    1.4000    0.0000 C   0  0  0  0  0  0  0  0  0  0  0  0
   20.1874    2.1000    0.0000 O   0  0  0  0  0  0  0  0  0  0  0  0
   18.9750    0.0000    0.0000 O   0  0  0  0  0  0  0  0  0  0  0  0
   21.3998    1.4000    0.0000 C   0  0  0  0  0  0  0  0  0  0  0  0
   22.6123    2.1000    0.0000 C   0  0  0  0  0  0  0  0  0  0  0  0
  1  2  1  0  0  0  0
  2  3  1  0  0  0  0
  3  4  1  0  0  0  0
  4  5  1  0  0  0  0
  5  6  1  0  0  0  0
  6  1  1  0  0  0  0
  3  7  1  0  0  0  0
  1  8  1  0  0  0  0
  7  9  1  0  0  0  0
  8  9  1  0  0  0  0
  5 10  1  0  0  0  0
 10  9  1  0  0  0  0
  5 11  1  0  0  0  0
 11 12  1  0  0  0  0
 12 13  1  0  0  0  0
 12 14  2  0  0  0  0
 13 15  1  0  0  0  0
 15 16  1  0  0  0  0
 16 17  1  0  0  0  0
 17 18  1  0  0  0  0
 18 19  1  0  0  0  0
 18 20  2  0  0  0  0
 19 21  1  0  0  0  0
 21 22  2  0  0  0  0
 22 23  1  0  0  0  0
 23 24  2  0  0  0  0
 24 25  1  0  0  0  0
 25 26  2  0  0  0  0
 26 21  1  0  0  0  0
 24 27  1  0  0  0  0
 27 28  1  0  0  0  0
 27 29  2  0  0  0  0
 28 30  1  0  0  0  0
 30 31  1  0  0  0  0
M  END
> <Molecule Name>
853

> <CDD Number>
CDD-15780

> <Human_sEH_IC50_uM>
0.5

> <Mouse_sEH_IC50_uM>
0.06

$$$$

SketchEl molfile

 32 35  0  0  0  0  0  0  0  0999 V2000
    0.9568    2.8993    0.0000 C   0  0  0  0  0  0  0  0  0  0  0  0
    0.0000    1.2421    0.0000 C   0  0  0  0  0  0  0  0  0  0  0  0
    1.8400    1.7679    0.0000 C   0  0  0  0  0  0  0  0  0  0  0  0
    3.6912    1.2421    0.0000 C   0  0  0  0  0  0  0  0  0  0  0  0
    4.6482    2.8993    0.0000 C   0  0  0  0  0  0  0  0  0  0  0  0
    2.8081    2.3736    0.0000 C   0  0  0  0  0  0  0  0  0  0  0  0
    1.8400    3.6816    0.0000 C   0  0  0  0  0  0  0  0  0  0  0  0
    0.9568    4.8130    0.0000 C   0  0  0  0  0  0  0  0  0  0  0  0
    2.7969    5.3389    0.0000 C   0  0  0  0  0  0  0  0  0  0  0  0
    4.6482    4.8130    0.0000 C   0  0  0  0  0  0  0  0  0  0  0  0
    5.8607    2.1993    0.0000 N   0  0  0  0  0  0  0  0  0  0  0  0
    6.8506    2.8000    0.0000 C   0  0  0  0  0  0  0  0  0  0  0  0
    8.0630    2.1000    0.0000 N   0  0  0  0  0  0  0  0  0  0  0  0
    6.8506    4.2000    0.0000 O   0  0  0  0  0  0  0  0  0  0  0  0
    9.2755    2.8000    0.0000 C   0  0  0  0  0  0  0  0  0  0  0  0
   10.4879    2.1000    0.0000 C   0  0  0  0  0  0  0  0  0  0  0  0
   11.7003    2.8000    0.0000 C   0  0  0  0  0  0  0  0  0  0  0  0
   12.9128    2.1000    0.0000 C   0  0  0  0  0  0  0  0  0  0  0  0
   14.1252    2.8000    0.0000 O   0  0  0  0  0  0  0  0  0  0  0  0
   12.9128    0.7000    0.0000 O   0  0  0  0  0  0  0  0  0  0  0  0
   15.3377    2.1000    0.0000 C   0  0  0  0  0  0  0  0  0  0  0  0
   15.3377    0.7000    0.0000 C   0  0  0  0  0  0  0  0  0  0  0  0
   16.5501    0.0000    0.0000 C   0  0  0  0  0  0  0  0  0  0  0  0
   17.7625    0.7000    0.0000 C   0  0  0  0  0  0  0  0  0  0  0  0
   17.7625    2.1000    0.0000 C   0  0  0  0  0  0  0  0  0  0  0  0
   16.5501    2.8000    0.0000 C   0  0  0  0  0  0  0  0  0  0  0  0
   18.9750    0.0000    0.0000 C   0  0  0  0  0  0  0  0  0  0  0  0
   20.1874    0.7000    0.0000 C   0  0  0  0  0  0  0  0  0  0  0  0
   21.3998    0.0000    0.0000 O   0  0  0  0  0  0  0  0  0  0  0  0
   20.1874    2.1000    0.0000 O   0  0  0  0  0  0  0  0  0  0  0  0
   22.6123    0.7000    0.0000 C   0  0  0  0  0  0  0  0  0  0  0  0
   23.8247    0.0000    0.0000 C   0  0  0  0  0  0  0  0  0  0  0  0
  1  2  1  0  0  0  0
  2  3  1  0  0  0  0
  3  4  1  0  0  0  0
  4  5  1  0  0  0  0
  5  6  1  0  0  0  0
  6  1  1  0  0  0  0
  3  7  1  0  0  0  0
  1  8  1  0  0  0  0
  7  9  1  0  0  0  0
  8  9  1  0  0  0  0
  5 10  1  0  0  0  0
 10  9  1  0  0  0  0
  5 11  1  0  0  0  0
 11 12  1  0  0  0  0
 12 13  1  0  0  0  0
 12 14  2  0  0  0  0
 13 15  1  0  0  0  0
 15 16  1  0  0  0  0
 16 17  1  0  0  0  0
 17 18  1  0  0  0  0
 18 19  1  0  0  0  0
 18 20  2  0  0  0  0
 19 21  1  0  0  0  0
 21 22  2  0  0  0  0
 22 23  1  0  0  0  0
 23 24  2  0  0  0  0
 24 25  1  0  0  0  0
 25 26  2  0  0  0  0
 26 21  1  0  0  0  0
 24 27  1  0  0  0  0
 27 28  1  0  0  0  0
 28 29  1  0  0  0  0
 28 30  2  0  0  0  0
 29 31  1  0  0  0  0
 31 32  1  0  0  0  0
M  END
> <Molecule Name>
852

> <CDD Number>
CDD-15779

> <Human_sEH_IC50_uM>
0.14

> <Mouse_sEH_IC50_uM>
0.05

$$$$

SketchEl molfile

 33 36  0  0  0  0  0  0  0  0999 V2000
    0.9568    4.2995    0.0000 C   0  0  0  0  0  0  0  0  0  0  0  0
    0.0000    2.6422    0.0000 C   0  0  0  0  0  0  0  0  0  0  0  0
    1.8400    3.1681    0.0000 C   0  0  0  0  0  0  0  0  0  0  0  0
    3.6912    2.6422    0.0000 C   0  0  0  0  0  0  0  0  0  0  0  0
    4.6482    4.2995    0.0000 C   0  0  0  0  0  0  0  0  0  0  0  0
    2.8081    3.7738    0.0000 C   0  0  0  0  0  0  0  0  0  0  0  0
    1.8400    5.0817    0.0000 C   0  0  0  0  0  0  0  0  0  0  0  0
    0.9568    6.2131    0.0000 C   0  0  0  0  0  0  0  0  0  0  0  0
    2.7969    6.7390    0.0000 C   0  0  0  0  0  0  0  0  0  0  0  0
    4.6482    6.2131    0.0000 C   0  0  0  0  0  0  0  0  0  0  0  0
    5.8607    3.5995    0.0000 N   0  0  0  0  0  0  0  0  0  0  0  0
    6.8506    4.2001    0.0000 C   0  0  0  0  0  0  0  0  0  0  0  0
    8.0630    3.5001    0.0000 N   0  0  0  0  0  0  0  0  0  0  0  0
    6.8506    5.6001    0.0000 O   0  0  0  0  0  0  0  0  0  0  0  0
    9.2755    4.2001    0.0000 C   0  0  0  0  0  0  0  0  0  0  0  0
   10.4879    3.5001    0.0000 C   0  0  0  0  0  0  0  0  0  0  0  0
   11.7003    4.2001    0.0000 C   0  0  0  0  0  0  0  0  0  0  0  0
   12.9128    3.5001    0.0000 C   0  0  0  0  0  0  0  0  0  0  0  0
   14.1252    4.2001    0.0000 O   0  0  0  0  0  0  0  0  0  0  0  0
   12.9128    2.1001    0.0000 O   0  0  0  0  0  0  0  0  0  0  0  0
   15.3377    3.5001    0.0000 C   0  0  0  0  0  0  0  0  0  0  0  0
   15.3379    2.1001    0.0000 C   0  0  0  0  0  0  0  0  0  0  0  0
   16.5504    1.4003    0.0000 C   0  0  0  0  0  0  0  0  0  0  0  0
   17.7627    2.1001    0.0000 C   0  0  0  0  0  0  0  0  0  0  0  0
   17.7627    3.5001    0.0000 C   0  0  0  0  0  0  0  0  0  0  0  0
   16.5504    4.2000    0.0000 C   0  0  0  0  0  0  0  0  0  0  0  0
   18.9752    1.4001    0.0000 C   0  0  0  0  0  0  0  0  0  0  0  0
   20.1876    2.1000    0.0000 C   0  0  0  0  0  0  0  0  0  0  0  0
   21.4000    1.4000    0.0000 C   0  0  0  0  0  0  0  0  0  0  0  0
   22.6125    2.1000    0.0000 O   0  0  0  0  0  0  0  0  0  0  0  0
   21.4000    0.0000    0.0000 O   0  0  0  0  0  0  0  0  0  0  0  0
   23.8249    1.3999    0.0000 C   0  0  0  0  0  0  0  0  0  0  0  0
   25.0374    2.0999    0.0000 C   0  0  0  0  0  0  0  0  0  0  0  0
  1  2  1  0  0  0  0
  2  3  1  0  0  0  0
  3  4  1  0  0  0  0
  4  5  1  0  0  0  0
  5  6  1  0  0  0  0
  6  1  1  0  0  0  0
  3  7  1  0  0  0  0
  1  8  1  0  0  0  0
  7  9  1  0  0  0  0
  8  9  1  0  0  0  0
  5 10  1  0  0  0  0
 10  9  1  0  0  0  0
  5 11  1  0  0  0  0
 11 12  1  0  0  0  0
 12 13  1  0  0  0  0
 12 14  2  0  0  0  0
 13 15  1  0  0  0  0
 15 16  1  0  0  0  0
 16 17  1  0  0  0  0
 17 18  1  0  0  0  0
 18 19  1  0  0  0  0
 18 20  2  0  0  0  0
 19 21  1  0  0  0  0
 21 22  2  0  0  0  0
 22 23  1  0  0  0  0
 23 24  2  0  0  0  0
 24 25  1  0  0  0  0
 25 26  2  0  0  0  0
 26 21  1  0  0  0  0
 24 27  1  0  0  0  0
 27 28  2  0  0  0  0
 28 29  1  0  0  0  0
 29 30  1  0  0  0  0
 29 31  2  0  0  0  0
 30 32  1  0  0  0  0
 32 33  1  0  0  0  0
M  END
> <Molecule Name>
851

> <CDD Number>
CDD-15778

> <Human_sEH_IC50_uM>
0.2

> <Mouse_sEH_IC50_uM>
0.05

$$$$

SketchEl molfile

 22 22  0  0  0  0  0  0  0  0999 V2000
    1.2124    3.6721    0.0000 C   0  0  0  0  0  0  0  0  0  0  0  0
    1.2124    2.2721    0.0000 C   0  0  0  0  0  0  0  0  0  0  0  0
    2.4249    1.5721    0.0000 C   0  0  0  0  0  0  0  0  0  0  0  0
    3.6373    2.2721    0.0000 C   0  0  0  0  0  0  0  0  0  0  0  0
    3.6373    3.6721    0.0000 C   0  0  0  0  0  0  0  0  0  0  0  0
    2.4249    4.3721    0.0000 C   0  0  0  0  0  0  0  0  0  0  0  0
    0.0000    1.5721    0.0000 Cl  0  0  0  0  0  0  0  0  0  0  0  0
    4.8497    1.5721    0.0000 N   0  0  0  0  0  0  0  0  0  0  0  0
    5.8397    2.1728    0.0000 C   0  0  0  0  0  0  0  0  0  0  0  0
    7.0671    1.4993    0.0000 N   0  0  0  0  0  0  0  0  0  0  0  0
    5.8397    3.5728    0.0000 O   0  0  0  0  0  0  0  0  0  0  0  0
    8.0570    2.1000    0.0000 C   0  0  0  0  0  0  0  0  0  0  0  0
    9.2695    1.4000    0.0000 C   0  0  0  0  0  0  0  0  0  0  0  0
   10.4819    2.1000    0.0000 C   0  0  0  0  0  0  0  0  0  0  0  0
   11.6943    1.4000    0.0000 C   0  0  0  0  0  0  0  0  0  0  0  0
   12.9068    2.1000    0.0000 C   0  0  0  0  0  0  0  0  0  0  0  0
   14.1192    1.4000    0.0000 C   0  0  0  0  0  0  0  0  0  0  0  0
   15.3317    2.1000    0.0000 C   0  0  0  0  0  0  0  0  0  0  0  0
   16.5441    1.4000    0.0000 C   0  0  0  0  0  0  0  0  0  0  0  0
   17.7565    2.1000    0.0000 C   0  0  0  0  0  0  0  0  0  0  0  0
   18.9690    1.4000    0.0000 C   0  0  0  0  0  0  0  0  0  0  0  0
   11.6943    0.0000    0.0000 O   0  0  0  0  0  0  0  0  0  0  0  0
  1  2  2  0  0  0  0
  2  3  1  0  0  0  0
  3  4  2  0  0  0  0
  4  5  1  0  0  0  0
  5  6  2  0  0  0  0
  6  1  1  0  0  0  0
  2  7  1  0  0  0  0
  4  8  1  0  0  0  0
  8  9  1  0  0  0  0
  9 10  1  0  0  0  0
  9 11  2  0  0  0  0
 10 12  1  0  0  0  0
 12 13  1  0  0  0  0
 13 14  1  0  0  0  0
 14 15  1  0  0  0  0
 15 16  1  0  0  0  0
 16 17  1  0  0  0  0
 17 18  1  0  0  0  0
 18 19  1  0  0  0  0
 19 20  1  0  0  0  0
 20 21  1  0  0  0  0
 15 22  1  0  0  0  0
M  END
> <Molecule Name>
850

> <CDD Number>
CDD-15777

> <Human_sEH_IC50_uM>
3.1

> <Mouse_sEH_IC50_uM>
0.14

$$$$

SketchEl molfile

 32 35  0  0  0  0  0  0  0  0999 V2000
    0.9568    2.1993    0.0000 C   0  0  0  0  0  0  0  0  0  0  0  0
    0.0000    0.5421    0.0000 C   0  0  0  0  0  0  0  0  0  0  0  0
    1.8400    1.0679    0.0000 C   0  0  0  0  0  0  0  0  0  0  0  0
    3.6912    0.5421    0.0000 C   0  0  0  0  0  0  0  0  0  0  0  0
    4.6482    2.1993    0.0000 C   0  0  0  0  0  0  0  0  0  0  0  0
    2.8081    1.6736    0.0000 C   0  0  0  0  0  0  0  0  0  0  0  0
    1.8400    2.9816    0.0000 C   0  0  0  0  0  0  0  0  0  0  0  0
    0.9568    4.1130    0.0000 C   0  0  0  0  0  0  0  0  0  0  0  0
    2.7969    4.6389    0.0000 C   0  0  0  0  0  0  0  0  0  0  0  0
    4.6482    4.1130    0.0000 C   0  0  0  0  0  0  0  0  0  0  0  0
    5.8607    1.4993    0.0000 N   0  0  0  0  0  0  0  0  0  0  0  0
    6.8506    2.1000    0.0000 C   0  0  0  0  0  0  0  0  0  0  0  0
    8.0630    1.4000    0.0000 N   0  0  0  0  0  0  0  0  0  0  0  0
    6.8506    3.5000    0.0000 O   0  0  0  0  0  0  0  0  0  0  0  0
    9.2755    2.1000    0.0000 C   0  0  0  0  0  0  0  0  0  0  0  0
   10.4879    1.4000    0.0000 C   0  0  0  0  0  0  0  0  0  0  0  0
   11.7003    2.1000    0.0000 C   0  0  0  0  0  0  0  0  0  0  0  0
   12.9128    1.4000    0.0000 C   0  0  0  0  0  0  0  0  0  0  0  0
   14.1252    2.1000    0.0000 O   0  0  0  0  0  0  0  0  0  0  0  0
   12.9128    0.0000    0.0000 O   0  0  0  0  0  0  0  0  0  0  0  0
   15.3377    1.4000    0.0000 C   0  0  0  0  0  0  0  0  0  0  0  0
   16.5501    2.1000    0.0000 C   0  0  0  0  0  0  0  0  0  0  0  0
   17.7625    1.4000    0.0000 C   0  0  0  0  0  0  0  0  0  0  0  0
   18.9750    2.1000    0.0000 C   0  0  0  0  0  0  0  0  0  0  0  0
   18.9750    3.5000    0.0000 C   0  0  0  0  0  0  0  0  0  0  0  0
   17.7625    4.2000    0.0000 C   0  0  0  0  0  0  0  0  0  0  0  0
   16.5501    3.5000    0.0000 C   0  0  0  0  0  0  0  0  0  0  0  0
   20.1874    4.2000    0.0000 C   0  0  0  0  0  0  0  0  0  0  0  0
   21.3998    3.5000    0.0000 O   0  0  0  0  0  0  0  0  0  0  0  0
   20.1874    5.6000    0.0000 O   0  0  0  0  0  0  0  0  0  0  0  0
   22.6123    4.2000    0.0000 C   0  0  0  0  0  0  0  0  0  0  0  0
   23.8247    3.5000    0.0000 C   0  0  0  0  0  0  0  0  0  0  0  0
  1  2  1  0  0  0  0
  2  3  1  0  0  0  0
  3  4  1  0  0  0  0
  4  5  1  0  0  0  0
  5  6  1  0  0  0  0
  6  1  1  0  0  0  0
  3  7  1  0  0  0  0
  1  8  1  0  0  0  0
  7  9  1  0  0  0  0
  8  9  1  0  0  0  0
  5 10  1  0  0  0  0
 10  9  1  0  0  0  0
  5 11  1  0  0  0  0
 11 12  1  0  0  0  0
 12 13  1  0  0  0  0
 12 14  2  0  0  0  0
 13 15  1  0  0  0  0
 15 16  1  0  0  0  0
 16 17  1  0  0  0  0
 17 18  1  0  0  0  0
 18 19  1  0  0  0  0
 18 20  2  0  0  0  0
 19 21  1  0  0  0  0
 21 22  1  0  0  0  0
 22 23  2  0  0  0  0
 23 24  1  0  0  0  0
 24 25  2  0  0  0  0
 25 26  1  0  0  0  0
 26 27  2  0  0  0  0
 27 22  1  0  0  0  0
 25 28  1  0  0  0  0
 28 29  1  0  0  0  0
 28 30  2  0  0  0  0
 29 31  1  0  0  0  0
 31 32  1  0  0  0  0
M  END
> <Molecule Name>
849

> <CDD Number>
CDD-15776

> <Human_sEH_IC50_uM>
0.1

> <Mouse_sEH_IC50_uM>
0.05

$$$$

SketchEl molfile

 32 34  0  0  0  0  0  0  0  0999 V2000
    0.9568    2.1993    0.0000 C   0  0  0  0  0  0  0  0  0  0  0  0
    0.0000    0.5421    0.0000 C   0  0  0  0  0  0  0  0  0  0  0  0
    1.8400    1.0679    0.0000 C   0  0  0  0  0  0  0  0  0  0  0  0
    3.6912    0.5421    0.0000 C   0  0  0  0  0  0  0  0  0  0  0  0
    4.6482    2.1993    0.0000 C   0  0  0  0  0  0  0  0  0  0  0  0
    2.8081    1.6736    0.0000 C   0  0  0  0  0  0  0  0  0  0  0  0
    1.8400    2.9816    0.0000 C   0  0  0  0  0  0  0  0  0  0  0  0
    0.9568    4.1130    0.0000 C   0  0  0  0  0  0  0  0  0  0  0  0
    2.7969    4.6389    0.0000 C   0  0  0  0  0  0  0  0  0  0  0  0
    4.6482    4.1130    0.0000 C   0  0  0  0  0  0  0  0  0  0  0  0
    5.8607    1.4993    0.0000 N   0  0  0  0  0  0  0  0  0  0  0  0
    6.8506    2.1000    0.0000 C   0  0  0  0  0  0  0  0  0  0  0  0
    8.0630    1.4000    0.0000 N   0  0  0  0  0  0  0  0  0  0  0  0
    6.8506    3.5000    0.0000 O   0  0  0  0  0  0  0  0  0  0  0  0
    9.2755    2.1000    0.0000 C   0  0  0  0  0  0  0  0  0  0  0  0
   10.4879    1.4000    0.0000 C   0  0  0  0  0  0  0  0  0  0  0  0
   11.7003    2.1000    0.0000 C   0  0  0  0  0  0  0  0  0  0  0  0
   12.9128    1.4000    0.0000 C   0  0  0  0  0  0  0  0  0  0  0  0
   14.1252    2.1000    0.0000 C   0  0  0  0  0  0  0  0  0  0  0  0
   15.3377    1.4000    0.0000 C   0  0  0  0  0  0  0  0  0  0  0  0
   16.5501    2.1000    0.0000 C   0  0  0  0  0  0  0  0  0  0  0  0
   17.7625    1.4000    0.0000 C   0  0  0  0  0  0  0  0  0  0  0  0
   18.9750    2.1000    0.0000 C   0  0  0  0  0  0  0  0  0  0  0  0
   20.1874    1.4000    0.0000 C   0  0  0  0  0  0  0  0  0  0  0  0
   21.3998    2.1000    0.0000 C   0  0  0  0  0  0  0  0  0  0  0  0
   22.6123    1.4000    0.0000 C   0  0  0  0  0  0  0  0  0  0  0  0
   23.8247    2.1000    0.0000 N   0  0  0  0  0  0  0  0  0  0  0  0
   22.6123    0.0000    0.0000 O   0  0  0  0  0  0  0  0  0  0  0  0
   24.8147    1.4993    0.0000 S   0  0  0  0  0  0  0  0  0  0  0  0
   26.0271    2.1993    0.0000 C   0  0  0  0  0  0  0  0  0  0  0  0
   24.8147    2.8993    0.0000 O   0  0  0  0  0  0  0  0  0  0  0  0
   24.8147    0.0993    0.0000 O   0  0  0  0  0  0  0  0  0  0  0  0
  1  2  1  0  0  0  0
  2  3  1  0  0  0  0
  3  4  1  0  0  0  0
  4  5  1  0  0  0  0
  5  6  1  0  0  0  0
  6  1  1  0  0  0  0
  3  7  1  0  0  0  0
  1  8  1  0  0  0  0
  7  9  1  0  0  0  0
  8  9  1  0  0  0  0
  5 10  1  0  0  0  0
 10  9  1  0  0  0  0
  5 11  1  0  0  0  0
 11 12  1  0  0  0  0
 12 13  1  0  0  0  0
 12 14  2  0  0  0  0
 13 15  1  0  0  0  0
 15 16  1  0  0  0  0
 16 17  1  0  0  0  0
 17 18  1  0  0  0  0
 18 19  1  0  0  0  0
 19 20  1  0  0  0  0
 20 21  1  0  0  0  0
 21 22  1  0  0  0  0
 22 23  1  0  0  0  0
 23 24  1  0  0  0  0
 24 25  1  0  0  0  0
 25 26  1  0  0  0  0
 26 27  1  0  0  0  0
 26 28  2  0  0  0  0
 27 29  1  0  0  0  0
 29 30  1  0  0  0  0
 29 31  2  0  0  0  0
 29 32  2  0  0  0  0
M  END
> <Molecule Name>
848

> <CDD Number>
CDD-15775

> <Human_sEH_IC50_uM>
0.1

> <Mouse_sEH_IC50_uM>
0.05

$$$$

SketchEl molfile

 21 21  0  0  0  0  0  0  0  0999 V2000
    1.2124    2.2721    0.0000 C   0  0  0  0  0  0  0  0  0  0  0  0
    1.2124    0.8721    0.0000 C   0  0  0  0  0  0  0  0  0  0  0  0
    2.4249    0.1721    0.0000 C   0  0  0  0  0  0  0  0  0  0  0  0
    3.6373    0.8721    0.0000 C   0  0  0  0  0  0  0  0  0  0  0  0
    3.6373    2.2721    0.0000 C   0  0  0  0  0  0  0  0  0  0  0  0
    2.4249    2.9721    0.0000 C   0  0  0  0  0  0  0  0  0  0  0  0
    0.0000    0.1721    0.0000 Cl  0  0  0  0  0  0  0  0  0  0  0  0
    4.8497    0.1721    0.0000 N   0  0  0  0  0  0  0  0  0  0  0  0
    5.8397    0.7728    0.0000 C   0  0  0  0  0  0  0  0  0  0  0  0
    7.0671    0.0993    0.0000 N   0  0  0  0  0  0  0  0  0  0  0  0
    5.8397    2.1728    0.0000 O   0  0  0  0  0  0  0  0  0  0  0  0
    8.0570    0.7000    0.0000 C   0  0  0  0  0  0  0  0  0  0  0  0
    9.2695    0.0000    0.0000 C   0  0  0  0  0  0  0  0  0  0  0  0
   10.4819    0.7000    0.0000 C   0  0  0  0  0  0  0  0  0  0  0  0
   11.6943    0.0000    0.0000 C   0  0  0  0  0  0  0  0  0  0  0  0
   12.9068    0.7000    0.0000 O   0  0  0  0  0  0  0  0  0  0  0  0
   14.1192    0.0000    0.0000 C   0  0  0  0  0  0  0  0  0  0  0  0
   15.3317    0.7000    0.0000 C   0  0  0  0  0  0  0  0  0  0  0  0
   16.5441    0.0000    0.0000 C   0  0  0  0  0  0  0  0  0  0  0  0
   17.7565    0.7000    0.0000 C   0  0  0  0  0  0  0  0  0  0  0  0
   18.9690    0.0000    0.0000 C   0  0  0  0  0  0  0  0  0  0  0  0
  1  2  2  0  0  0  0
  2  3  1  0  0  0  0
  3  4  2  0  0  0  0
  4  5  1  0  0  0  0
  5  6  2  0  0  0  0
  6  1  1  0  0  0  0
  2  7  1  0  0  0  0
  4  8  1  0  0  0  0
  8  9  1  0  0  0  0
  9 10  1  0  0  0  0
  9 11  2  0  0  0  0
 10 12  1  0  0  0  0
 12 13  1  0  0  0  0
 13 14  1  0  0  0  0
 14 15  1  0  0  0  0
 15 16  1  0  0  0  0
 16 17  1  0  0  0  0
 17 18  1  0  0  0  0
 18 19  1  0  0  0  0
 19 20  1  0  0  0  0
 20 21  1  0  0  0  0
M  END
> <Molecule Name>
847

> <CDD Number>
CDD-15774

> <Human_sEH_IC50_uM>
1.24

> <Mouse_sEH_IC50_uM>
0.25

$$$$

SketchEl molfile

 31 34  0  0  0  0  0  0  0  0999 V2000
    0.9568    2.8000    0.0000 C   0  0  0  0  0  0  0  0  0  0  0  0
    0.0000    1.1427    0.0000 C   0  0  0  0  0  0  0  0  0  0  0  0
    1.8400    1.6686    0.0000 C   0  0  0  0  0  0  0  0  0  0  0  0
    3.6912    1.1427    0.0000 C   0  0  0  0  0  0  0  0  0  0  0  0
    4.6482    2.8000    0.0000 C   0  0  0  0  0  0  0  0  0  0  0  0
    2.8081    2.2743    0.0000 C   0  0  0  0  0  0  0  0  0  0  0  0
    1.8400    3.5823    0.0000 C   0  0  0  0  0  0  0  0  0  0  0  0
    0.9568    4.7137    0.0000 C   0  0  0  0  0  0  0  0  0  0  0  0
    2.7969    5.2395    0.0000 C   0  0  0  0  0  0  0  0  0  0  0  0
    4.6482    4.7137    0.0000 C   0  0  0  0  0  0  0  0  0  0  0  0
    5.8607    2.1000    0.0000 N   0  0  0  0  0  0  0  0  0  0  0  0
    6.8506    2.7007    0.0000 C   0  0  0  0  0  0  0  0  0  0  0  0
    8.0630    2.0007    0.0000 N   0  0  0  0  0  0  0  0  0  0  0  0
    6.8506    4.1007    0.0000 O   0  0  0  0  0  0  0  0  0  0  0  0
    9.2755    2.7007    0.0000 C   0  0  0  0  0  0  0  0  0  0  0  0
   10.4879    2.0007    0.0000 C   0  0  0  0  0  0  0  0  0  0  0  0
   11.7003    2.7007    0.0000 C   0  0  0  0  0  0  0  0  0  0  0  0
   12.9128    2.0007    0.0000 C   0  0  0  0  0  0  0  0  0  0  0  0
   14.1252    2.7007    0.0000 N   0  0  0  0  0  0  0  0  0  0  0  0
   12.9128    0.6007    0.0000 O   0  0  0  0  0  0  0  0  0  0  0  0
   15.1152    2.1000    0.0000 C   0  0  0  0  0  0  0  0  0  0  0  0
   15.1152    0.7000    0.0000 C   0  0  0  0  0  0  0  0  0  0  0  0
   16.3276    0.0000    0.0000 C   0  0  0  0  0  0  0  0  0  0  0  0
   17.5400    0.7000    0.0000 C   0  0  0  0  0  0  0  0  0  0  0  0
   17.5400    2.1000    0.0000 C   0  0  0  0  0  0  0  0  0  0  0  0
   16.3276    2.8000    0.0000 C   0  0  0  0  0  0  0  0  0  0  0  0
   18.7525    2.8000    0.0000 C   0  0  0  0  0  0  0  0  0  0  0  0
   19.9649    2.1000    0.0000 O   0  0  0  0  0  0  0  0  0  0  0  0
   18.7525    4.2000    0.0000 O   0  0  0  0  0  0  0  0  0  0  0  0
   21.1773    2.8000    0.0000 C   0  0  0  0  0  0  0  0  0  0  0  0
   22.3898    2.1000    0.0000 C   0  0  0  0  0  0  0  0  0  0  0  0
  1  2  1  0  0  0  0
  2  3  1  0  0  0  0
  3  4  1  0  0  0  0
  4  5  1  0  0  0  0
  5  6  1  0  0  0  0
  6  1  1  0  0  0  0
  3  7  1  0  0  0  0
  1  8  1  0  0  0  0
  7  9  1  0  0  0  0
  8  9  1  0  0  0  0
  5 10  1  0  0  0  0
 10  9  1  0  0  0  0
  5 11  1  0  0  0  0
 11 12  1  0  0  0  0
 12 13  1  0  0  0  0
 12 14  2  0  0  0  0
 13 15  1  0  0  0  0
 15 16  1  0  0  0  0
 16 17  1  0  0  0  0
 17 18  1  0  0  0  0
 18 19  1  0  0  0  0
 18 20  2  0  0  0  0
 19 21  1  0  0  0  0
 21 22  2  0  0  0  0
 22 23  1  0  0  0  0
 23 24  2  0  0  0  0
 24 25  1  0  0  0  0
 25 26  2  0  0  0  0
 26 21  1  0  0  0  0
 25 27  1  0  0  0  0
 27 28  1  0  0  0  0
 27 29  2  0  0  0  0
 28 30  1  0  0  0  0
 30 31  1  0  0  0  0
M  END
> <Molecule Name>
846

> <CDD Number>
CDD-15773

> <Human_sEH_IC50_uM>
0.79

> <Mouse_sEH_IC50_uM>
0.05

$$$$

SketchEl molfile

 31 33  0  0  0  0  0  0  0  0999 V2000
    0.9568    2.1993    0.0000 C   0  0  0  0  0  0  0  0  0  0  0  0
    0.0000    0.5421    0.0000 C   0  0  0  0  0  0  0  0  0  0  0  0
    1.8400    1.0679    0.0000 C   0  0  0  0  0  0  0  0  0  0  0  0
    3.6912    0.5421    0.0000 C   0  0  0  0  0  0  0  0  0  0  0  0
    4.6482    2.1993    0.0000 C   0  0  0  0  0  0  0  0  0  0  0  0
    2.8081    1.6736    0.0000 C   0  0  0  0  0  0  0  0  0  0  0  0
    1.8400    2.9816    0.0000 C   0  0  0  0  0  0  0  0  0  0  0  0
    0.9568    4.1130    0.0000 C   0  0  0  0  0  0  0  0  0  0  0  0
    2.7969    4.6389    0.0000 C   0  0  0  0  0  0  0  0  0  0  0  0
    4.6482    4.1130    0.0000 C   0  0  0  0  0  0  0  0  0  0  0  0
    5.8607    1.4993    0.0000 N   0  0  0  0  0  0  0  0  0  0  0  0
    6.8506    2.1000    0.0000 C   0  0  0  0  0  0  0  0  0  0  0  0
    8.0630    1.4000    0.0000 N   0  0  0  0  0  0  0  0  0  0  0  0
    6.8506    3.5000    0.0000 O   0  0  0  0  0  0  0  0  0  0  0  0
    9.2755    2.1000    0.0000 C   0  0  0  0  0  0  0  0  0  0  0  0
   10.4879    1.4000    0.0000 C   0  0  0  0  0  0  0  0  0  0  0  0
   11.7003    2.1000    0.0000 C   0  0  0  0  0  0  0  0  0  0  0  0
   12.9128    1.4000    0.0000 C   0  0  0  0  0  0  0  0  0  0  0  0
   14.1252    2.1000    0.0000 O   0  0  0  0  0  0  0  0  0  0  0  0
   12.9128    0.0000    0.0000 O   0  0  0  0  0  0  0  0  0  0  0  0
   15.3377    1.4000    0.0000 C   0  0  0  0  0  0  0  0  0  0  0  0
   16.5500    2.1001    0.0000 C   0  0  0  0  0  0  0  0  0  0  0  0
   17.7625    1.4003    0.0000 C   0  0  0  0  0  0  0  0  0  0  0  0
   18.9749    2.1004    0.0000 C   0  0  0  0  0  0  0  0  0  0  0  0
   20.1874    1.4005    0.0000 C   0  0  0  0  0  0  0  0  0  0  0  0
   21.3998    2.1006    0.0000 C   0  0  0  0  0  0  0  0  0  0  0  0
   22.6123    1.4008    0.0000 C   0  0  0  0  0  0  0  0  0  0  0  0
   23.8246    2.1009    0.0000 C   0  0  0  0  0  0  0  0  0  0  0  0
   22.6124    0.0008    0.0000 C   0  0  0  0  0  0  0  0  0  0  0  0
   16.7726    0.4103    0.0000 C   0  0  0  0  0  0  0  0  0  0  0  0
   18.9750    0.7003    0.0000 H   0  0  0  0  0  0  0  0  0  0  0  0
  1  2  1  0  0  0  0
  2  3  1  0  0  0  0
  3  4  1  0  0  0  0
  4  5  1  0  0  0  0
  5  6  1  0  0  0  0
  6  1  1  0  0  0  0
  3  7  1  0  0  0  0
  1  8  1  0  0  0  0
  7  9  1  0  0  0  0
  8  9  1  0  0  0  0
  5 10  1  0  0  0  0
 10  9  1  0  0  0  0
  5 11  1  0  0  0  0
 11 12  1  0  0  0  0
 12 13  1  0  0  0  0
 12 14  2  0  0  0  0
 13 15  1  0  0  0  0
 15 16  1  0  0  0  0
 16 17  1  0  0  0  0
 17 18  1  0  0  0  0
 18 19  1  0  0  0  0
 18 20  2  0  0  0  0
 19 21  1  0  0  0  0
 21 22  1  0  0  0  0
 22 23  1  0  0  0  0
 23 24  1  0  0  0  0
 24 25  1  0  0  0  0
 25 26  1  0  0  0  0
 27 28  1  0  0  0  0
 27 29  1  0  0  0  0
 26 27  2  0  0  0  0
 23 30  1  1  0  0  0
 23 31  1  6  0  0  0
M  END
> <Molecule Name>
845

> <CDD Number>
CDD-15772

> <Human_sEH_IC50_uM>
0.11

> <Mouse_sEH_IC50_uM>
0.05

$$$$

SketchEl molfile

 40 42  0  0  0  0  0  0  0  0999 V2000
    0.9899    7.7425    0.0000 C   0  0  0  0  0  0  0  0  0  0  0  0
    0.0000    6.7526    0.0000 C   0  0  0  0  0  0  0  0  0  0  0  0
    1.3998    6.7526    0.0000 C   0  0  0  0  0  0  0  0  0  0  0  0
    2.6161    6.0592    0.0000 C   0  0  0  0  0  0  0  0  0  0  0  0
    3.6062    7.0491    0.0000 C   0  0  0  0  0  0  0  0  0  0  0  0
    2.2063    7.0491    0.0000 C   0  0  0  0  0  0  0  0  0  0  0  0
    4.8186    6.3491    0.0000 N   0  0  0  0  0  0  0  0  0  0  0  0
    5.8086    6.9497    0.0000 C   0  0  0  0  0  0  0  0  0  0  0  0
    7.0210    6.2497    0.0000 N   0  0  0  0  0  0  0  0  0  0  0  0
    5.8086    8.3497    0.0000 O   0  0  0  0  0  0  0  0  0  0  0  0
    8.0110    6.8504    0.0000 C   0  0  0  0  0  0  0  0  0  0  0  0
    9.2234    6.1504    0.0000 C   0  0  0  0  0  0  0  0  0  0  0  0
   10.4358    6.8504    0.0000 C   0  0  0  0  0  0  0  0  0  0  0  0
   11.6483    6.1504    0.0000 C   0  0  0  0  0  0  0  0  0  0  0  0
   12.8607    6.8504    0.0000 N   0  0  0  0  0  0  0  0  0  0  0  0
   11.6483    4.7504    0.0000 O   0  0  0  0  0  0  0  0  0  0  0  0
   13.8507    6.2497    0.0000 C   0  0  0  0  0  0  0  0  0  0  0  0
   15.0631    6.9497    0.0000 C   0  0  0  0  0  0  0  0  0  0  0  0
   16.2755    6.2497    0.0000 N   0  0  0  0  0  0  0  0  0  0  0  0
   15.0631    8.3497    0.0000 O   0  0  0  0  0  0  0  0  0  0  0  0
   13.8507    4.8497    0.0000 C   0  0  0  0  0  0  0  0  0  0  0  0
   13.1507    3.6373    0.0000 C   0  0  0  0  0  0  0  0  0  0  0  0
   11.7507    3.6373    0.0000 C   0  0  0  0  0  0  0  0  0  0  0  0
   11.0507    2.4249    0.0000 C   0  0  0  0  0  0  0  0  0  0  0  0
   11.7507    1.2124    0.0000 C   0  0  0  0  0  0  0  0  0  0  0  0
   13.1507    1.2124    0.0000 C   0  0  0  0  0  0  0  0  0  0  0  0
   13.8507    2.4249    0.0000 C   0  0  0  0  0  0  0  0  0  0  0  0
   11.0507    0.0000    0.0000 O   0  0  0  0  0  0  0  0  0  0  0  0
   17.2655    6.8504    0.0000 C   0  0  0  0  0  0  0  0  0  0  0  0
   18.4779    6.1504    0.0000 C   0  0  0  0  0  0  0  0  0  0  0  0
   19.6903    6.8504    0.0000 O   0  0  0  0  0  0  0  0  0  0  0  0
   18.4779    4.7504    0.0000 O   0  0  0  0  0  0  0  0  0  0  0  0
   17.2655    8.2504    0.0000 C   0  0  0  0  0  0  0  0  0  0  0  0
   18.4779    8.9504    0.0000 C   0  0  0  0  0  0  0  0  0  0  0  0
   19.6903    8.2504    0.0000 C   0  0  0  0  0  0  0  0  0  0  0  0
   20.9028    8.9504    0.0000 C   0  0  0  0  0  0  0  0  0  0  0  0
   20.9028   10.3504    0.0000 C   0  0  0  0  0  0  0  0  0  0  0  0
   19.6903   11.0504    0.0000 C   0  0  0  0  0  0  0  0  0  0  0  0
   18.4779   10.3504    0.0000 C   0  0  0  0  0  0  0  0  0  0  0  0
   22.1152   11.0504    0.0000 O   0  0  0  0  0  0  0  0  0  0  0  0
  1  2  1  0  0  0  0
  2  3  1  0  0  0  0
  3  4  1  0  0  0  0
  4  5  1  0  0  0  0
  5  6  1  0  0  0  0
  6  1  1  0  0  0  0
  5  7  1  0  0  0  0
  7  8  1  0  0  0  0
  8  9  1  0  0  0  0
  8 10  2  0  0  0  0
  9 11  1  0  0  0  0
 11 12  1  0  0  0  0
 12 13  1  0  0  0  0
 13 14  1  0  0  0  0
 14 15  1  0  0  0  0
 14 16  2  0  0  0  0
 15 17  1  0  0  0  0
 17 18  1  0  0  0  0
 18 19  1  0  0  0  0
 18 20  2  0  0  0  0
 17 21  1  0  0  0  0
 21 22  1  0  0  0  0
 22 23  2  0  0  0  0
 23 24  1  0  0  0  0
 24 25  2  0  0  0  0
 25 26  1  0  0  0  0
 26 27  2  0  0  0  0
 27 22  1  0  0  0  0
 25 28  1  0  0  0  0
 19 29  1  0  0  0  0
 29 30  1  0  0  0  0
 30 31  1  0  0  0  0
 30 32  2  0  0  0  0
 29 33  1  0  0  0  0
 33 34  1  0  0  0  0
 34 35  2  0  0  0  0
 35 36  1  0  0  0  0
 36 37  2  0  0  0  0
 37 38  1  0  0  0  0
 38 39  2  0  0  0  0
 39 34  1  0  0  0  0
 37 40  1  0  0  0  0
M  END
> <Molecule Name>
844

> <CDD Number>
CDD-15771

> <Human_sEH_IC50_uM>
27.0

> <Mouse_sEH_IC50_uM>
0.23

$$$$

SketchEl molfile

 25 27  0  0  0  0  0  0  0  0999 V2000
    0.3623    3.5314    0.0000 C   0  0  0  0  0  0  0  0  0  0  0  0
    0.0000    2.1791    0.0000 C   0  0  0  0  0  0  0  0  0  0  0  0
    1.2007    2.8992    0.0000 C   0  0  0  0  0  0  0  0  0  0  0  0
    2.6007    2.8992    0.0000 C   0  0  0  0  0  0  0  0  0  0  0  0
    2.9632    4.2515    0.0000 C   0  0  0  0  0  0  0  0  0  0  0  0
    1.7624    3.5314    0.0000 C   0  0  0  0  0  0  0  0  0  0  0  0
    3.8131    2.1992    0.0000 N   0  0  0  0  0  0  0  0  0  0  0  0
    4.8031    2.7998    0.0000 C   0  0  0  0  0  0  0  0  0  0  0  0
    6.0155    2.0998    0.0000 O   0  0  0  0  0  0  0  0  0  0  0  0
    4.8031    4.1998    0.0000 O   0  0  0  0  0  0  0  0  0  0  0  0
    7.2279    2.7998    0.0000 C   0  0  0  0  0  0  0  0  0  0  0  0
    8.4402    2.0996    0.0000 C   0  0  0  0  0  0  0  0  0  0  0  0
    9.6528    2.7998    0.0000 C   0  0  0  0  0  0  0  0  0  0  0  0
    9.6528    4.1998    0.0000 C   0  0  0  0  0  0  0  0  0  0  0  0
    8.4402    4.9001    0.0000 C   0  0  0  0  0  0  0  0  0  0  0  0
    7.2279    4.1998    0.0000 C   0  0  0  0  0  0  0  0  0  0  0  0
   10.8653    2.0999    0.0000 C   0  0  0  0  0  0  0  0  0  0  0  0
   10.8654    0.6999    0.0000 C   0  0  0  0  0  0  0  0  0  0  0  0
   12.0779    0.0000    0.0000 C   0  0  0  0  0  0  0  0  0  0  0  0
   13.2903    0.6999    0.0000 C   0  0  0  0  0  0  0  0  0  0  0  0
   13.2903    2.0999    0.0000 C   0  0  0  0  0  0  0  0  0  0  0  0
   12.0779    2.7998    0.0000 C   0  0  0  0  0  0  0  0  0  0  0  0
   14.5027    2.7999    0.0000 C   0  0  0  0  0  0  0  0  0  0  0  0
   15.7151    2.0999    0.0000 N   0  0  0  0  0  0  0  0  0  0  0  0
   14.5027    4.1999    0.0000 O   0  0  0  0  0  0  0  0  0  0  0  0
  1  2  1  0  0  0  0
  2  3  1  0  0  0  0
  3  4  1  0  0  0  0
  4  5  1  0  0  0  0
  5  6  1  0  0  0  0
  6  1  1  0  0  0  0
  4  7  1  0  0  0  0
  7  8  1  0  0  0  0
  8  9  1  0  0  0  0
  8 10  2  0  0  0  0
  9 11  1  0  0  0  0
 11 12  2  0  0  0  0
 12 13  1  0  0  0  0
 13 14  2  0  0  0  0
 14 15  1  0  0  0  0
 15 16  2  0  0  0  0
 16 11  1  0  0  0  0
 13 17  1  0  0  0  0
 17 18  2  0  0  0  0
 18 19  1  0  0  0  0
 19 20  2  0  0  0  0
 20 21  1  0  0  0  0
 21 22  2  0  0  0  0
 22 17  1  0  0  0  0
 21 23  1  0  0  0  0
 23 24  1  0  0  0  0
 23 25  2  0  0  0  0
M  END
> <Molecule Name>
843

> <CDD Number>
CDD-15770

> <Human_sEH_IC50_uM>
100.0

> <Mouse_sEH_IC50_uM>
1.9

$$$$

SketchEl molfile

 25 27  0  0  0  0  0  0  0  0999 V2000
    1.2124    0.7728    0.0000 C   0  0  0  0  0  0  0  0  0  0  0  0
    2.4249    0.0728    0.0000 C   0  0  0  0  0  0  0  0  0  0  0  0
    3.6373    0.7728    0.0000 C   0  0  0  0  0  0  0  0  0  0  0  0
    3.6373    2.1728    0.0000 C   0  0  0  0  0  0  0  0  0  0  0  0
    2.4249    2.8728    0.0000 C   0  0  0  0  0  0  0  0  0  0  0  0
    1.2124    2.1728    0.0000 C   0  0  0  0  0  0  0  0  0  0  0  0
    0.0000    2.8728    0.0000 F   0  0  0  0  0  0  0  0  0  0  0  0
    4.8497    0.0728    0.0000 N   0  0  0  0  0  0  0  0  0  0  0  0
    5.8397    0.6734    0.0000 C   0  0  0  0  0  0  0  0  0  0  0  0
    7.0671    0.0000    0.0000 O   0  0  0  0  0  0  0  0  0  0  0  0
    5.8397    2.0734    0.0000 O   0  0  0  0  0  0  0  0  0  0  0  0
    8.2640    0.7262    0.0000 C   0  0  0  0  0  0  0  0  0  0  0  0
    9.4764    0.0262    0.0000 C   0  0  0  0  0  0  0  0  0  0  0  0
   10.6889    0.7262    0.0000 C   0  0  0  0  0  0  0  0  0  0  0  0
   10.6889    2.1262    0.0000 C   0  0  0  0  0  0  0  0  0  0  0  0
    9.4764    2.8262    0.0000 C   0  0  0  0  0  0  0  0  0  0  0  0
    8.2640    2.1262    0.0000 C   0  0  0  0  0  0  0  0  0  0  0  0
   11.9013    2.8262    0.0000 O   0  0  0  0  0  0  0  0  0  0  0  0
   13.1137    2.1262    0.0000 C   0  0  0  0  0  0  0  0  0  0  0  0
   14.3262    2.8262    0.0000 C   0  0  0  0  0  0  0  0  0  0  0  0
   15.5386    2.1262    0.0000 C   0  0  0  0  0  0  0  0  0  0  0  0
   16.7510    2.8262    0.0000 C   0  0  0  0  0  0  0  0  0  0  0  0
   16.7510    4.2262    0.0000 C   0  0  0  0  0  0  0  0  0  0  0  0
   15.5386    4.9262    0.0000 C   0  0  0  0  0  0  0  0  0  0  0  0
   14.3262    4.2262    0.0000 C   0  0  0  0  0  0  0  0  0  0  0  0
  1  2  2  0  0  0  0
  2  3  1  0  0  0  0
  3  4  2  0  0  0  0
  4  5  1  0  0  0  0
  5  6  2  0  0  0  0
  6  1  1  0  0  0  0
  6  7  1  0  0  0  0
  3  8  1  0  0  0  0
  8  9  1  0  0  0  0
  9 10  1  0  0  0  0
  9 11  2  0  0  0  0
 10 12  1  0  0  0  0
 12 13  2  0  0  0  0
 13 14  1  0  0  0  0
 14 15  2  0  0  0  0
 15 16  1  0  0  0  0
 16 17  2  0  0  0  0
 17 12  1  0  0  0  0
 15 18  1  0  0  0  0
 18 19  1  0  0  0  0
 19 20  1  0  0  0  0
 20 21  2  0  0  0  0
 21 22  1  0  0  0  0
 22 23  2  0  0  0  0
 23 24  1  0  0  0  0
 24 25  2  0  0  0  0
 25 20  1  0  0  0  0
M  END
> <Molecule Name>
841

> <CDD Number>
CDD-15768

> <Human_sEH_IC50_uM>
100.0

> <Mouse_sEH_IC50_uM>
100.0

$$$$

SketchEl molfile

 21 22  0  0  0  0  0  0  0  0999 V2000
    0.9900    3.5928    0.0000 C   0  0  0  0  0  0  0  0  0  0  0  0
    0.0000    2.6028    0.0000 C   0  0  0  0  0  0  0  0  0  0  0  0
    1.3998    2.6028    0.0000 C   0  0  0  0  0  0  0  0  0  0  0  0
    2.6161    1.9094    0.0000 C   0  0  0  0  0  0  0  0  0  0  0  0
    3.6062    2.8993    0.0000 C   0  0  0  0  0  0  0  0  0  0  0  0
    2.2063    2.8993    0.0000 C   0  0  0  0  0  0  0  0  0  0  0  0
    4.8186    2.1993    0.0000 N   0  0  0  0  0  0  0  0  0  0  0  0
    5.8086    2.8000    0.0000 C   0  0  0  0  0  0  0  0  0  0  0  0
    7.0210    2.1000    0.0000 O   0  0  0  0  0  0  0  0  0  0  0  0
    5.8086    4.2000    0.0000 O   0  0  0  0  0  0  0  0  0  0  0  0
    8.2334    2.8000    0.0000 C   0  0  0  0  0  0  0  0  0  0  0  0
    9.4459    2.1000    0.0000 C   0  0  0  0  0  0  0  0  0  0  0  0
   10.6583    2.8000    0.0000 C   0  0  0  0  0  0  0  0  0  0  0  0
   11.8708    2.1000    0.0000 C   0  0  0  0  0  0  0  0  0  0  0  0
   13.0832    2.8000    0.0000 C   0  0  0  0  0  0  0  0  0  0  0  0
   14.2956    2.1000    0.0000 C   0  0  0  0  0  0  0  0  0  0  0  0
   14.2956    0.7000    0.0000 C   0  0  0  0  0  0  0  0  0  0  0  0
   15.5081    0.0000    0.0000 C   0  0  0  0  0  0  0  0  0  0  0  0
   16.7205    0.7000    0.0000 C   0  0  0  0  0  0  0  0  0  0  0  0
   16.7205    2.1000    0.0000 C   0  0  0  0  0  0  0  0  0  0  0  0
   15.5081    2.8000    0.0000 C   0  0  0  0  0  0  0  0  0  0  0  0
  1  2  1  0  0  0  0
  2  3  1  0  0  0  0
  3  4  1  0  0  0  0
  4  5  1  0  0  0  0
  5  6  1  0  0  0  0
  6  1  1  0  0  0  0
  5  7  1  0  0  0  0
  7  8  1  0  0  0  0
  8  9  1  0  0  0  0
  8 10  2  0  0  0  0
  9 11  1  0  0  0  0
 11 12  1  0  0  0  0
 12 13  1  0  0  0  0
 13 14  1  0  0  0  0
 14 15  1  0  0  0  0
 15 16  1  0  0  0  0
 16 17  2  0  0  0  0
 17 18  1  0  0  0  0
 18 19  2  0  0  0  0
 19 20  1  0  0  0  0
 20 21  2  0  0  0  0
 21 16  1  0  0  0  0
M  END
> <Molecule Name>
840

> <CDD Number>
CDD-15769

> <Human_sEH_IC50_uM>
100.0

> <Mouse_sEH_IC50_uM>
18.0

$$$$

SketchEl molfile

 22 24  0  0  0  0  0  0  0  0999 V2000
    0.9900    3.6921    0.0000 C   0  0  0  0  0  0  0  0  0  0  0  0
    0.0000    2.7022    0.0000 C   0  0  0  0  0  0  0  0  0  0  0  0
    1.3998    2.7022    0.0000 C   0  0  0  0  0  0  0  0  0  0  0  0
    2.6161    2.0088    0.0000 C   0  0  0  0  0  0  0  0  0  0  0  0
    3.6062    2.9987    0.0000 C   0  0  0  0  0  0  0  0  0  0  0  0
    2.2063    2.9987    0.0000 C   0  0  0  0  0  0  0  0  0  0  0  0
    4.8186    2.2987    0.0000 N   0  0  0  0  0  0  0  0  0  0  0  0
    5.8086    2.8993    0.0000 C   0  0  0  0  0  0  0  0  0  0  0  0
    7.0210    2.1993    0.0000 O   0  0  0  0  0  0  0  0  0  0  0  0
    5.8086    4.2993    0.0000 O   0  0  0  0  0  0  0  0  0  0  0  0
    8.0110    2.8000    0.0000 C   0  0  0  0  0  0  0  0  0  0  0  0
    9.2234    2.1000    0.0000 C   0  0  0  0  0  0  0  0  0  0  0  0
   10.4358    2.8000    0.0000 C   0  0  0  0  0  0  0  0  0  0  0  0
   10.4358    4.2000    0.0000 C   0  0  0  0  0  0  0  0  0  0  0  0
    9.2234    4.9000    0.0000 C   0  0  0  0  0  0  0  0  0  0  0  0
    8.0110    4.2000    0.0000 C   0  0  0  0  0  0  0  0  0  0  0  0
   11.6483    2.1000    0.0000 C   0  0  0  0  0  0  0  0  0  0  0  0
   11.6483    0.7000    0.0000 C   0  0  0  0  0  0  0  0  0  0  0  0
   12.8607    0.0000    0.0000 C   0  0  0  0  0  0  0  0  0  0  0  0
   14.0731    0.7000    0.0000 C   0  0  0  0  0  0  0  0  0  0  0  0
   14.0731    2.1000    0.0000 C   0  0  0  0  0  0  0  0  0  0  0  0
   12.8607    2.8000    0.0000 C   0  0  0  0  0  0  0  0  0  0  0  0
  1  2  1  0  0  0  0
  2  3  1  0  0  0  0
  3  4  1  0  0  0  0
  4  5  1  0  0  0  0
  5  6  1  0  0  0  0
  6  1  1  0  0  0  0
  5  7  1  0  0  0  0
  7  8  1  0  0  0  0
  8  9  1  0  0  0  0
  8 10  2  0  0  0  0
  9 11  1  0  0  0  0
 11 12  2  0  0  0  0
 12 13  1  0  0  0  0
 13 14  2  0  0  0  0
 14 15  1  0  0  0  0
 15 16  2  0  0  0  0
 16 11  1  0  0  0  0
 13 17  1  0  0  0  0
 17 18  2  0  0  0  0
 18 19  1  0  0  0  0
 19 20  2  0  0  0  0
 20 21  1  0  0  0  0
 21 22  2  0  0  0  0
 22 17  1  0  0  0  0
M  END
> <Molecule Name>
839

> <CDD Number>
CDD-15767

> <Human_sEH_IC50_uM>
100.0

> <Mouse_sEH_IC50_uM>
9.0

$$$$

SketchEl molfile

 32 36  0  0  0  0  0  0  0  0999 V2000
    0.9568    4.2993    0.0000 C   0  0  0  0  0  0  0  0  0  0  0  0
    0.0000    2.6421    0.0000 C   0  0  0  0  0  0  0  0  0  0  0  0
    1.8400    3.1679    0.0000 C   0  0  0  0  0  0  0  0  0  0  0  0
    3.6912    2.6421    0.0000 C   0  0  0  0  0  0  0  0  0  0  0  0
    4.6482    4.2993    0.0000 C   0  0  0  0  0  0  0  0  0  0  0  0
    2.8081    3.7736    0.0000 C   0  0  0  0  0  0  0  0  0  0  0  0
    1.8400    5.0816    0.0000 C   0  0  0  0  0  0  0  0  0  0  0  0
    0.9568    6.2130    0.0000 C   0  0  0  0  0  0  0  0  0  0  0  0
    2.7969    6.7389    0.0000 C   0  0  0  0  0  0  0  0  0  0  0  0
    4.6482    6.2130    0.0000 C   0  0  0  0  0  0  0  0  0  0  0  0
    5.8607    3.5993    0.0000 N   0  0  0  0  0  0  0  0  0  0  0  0
    6.8506    4.2000    0.0000 C   0  0  0  0  0  0  0  0  0  0  0  0
    8.0630    3.5000    0.0000 N   0  0  0  0  0  0  0  0  0  0  0  0
    6.8506    5.6000    0.0000 O   0  0  0  0  0  0  0  0  0  0  0  0
    9.2755    4.2000    0.0000 C   0  0  0  0  0  0  0  0  0  0  0  0
   10.4879    3.5000    0.0000 C   0  0  0  0  0  0  0  0  0  0  0  0
   11.7003    4.2000    0.0000 C   0  0  0  0  0  0  0  0  0  0  0  0
   12.9128    3.5000    0.0000 C   0  0  0  0  0  0  0  0  0  0  0  0
   14.1252    4.2000    0.0000 O   0  0  0  0  0  0  0  0  0  0  0  0
   12.9128    2.1000    0.0000 O   0  0  0  0  0  0  0  0  0  0  0  0
   15.3377    3.5000    0.0000 C   0  0  0  0  0  0  0  0  0  0  0  0
   15.3377    2.1000    0.0000 C   0  0  0  0  0  0  0  0  0  0  0  0
   16.5501    1.4000    0.0000 C   0  0  0  0  0  0  0  0  0  0  0  0
   17.7625    2.1000    0.0000 C   0  0  0  0  0  0  0  0  0  0  0  0
   17.7625    3.5000    0.0000 C   0  0  0  0  0  0  0  0  0  0  0  0
   16.5501    4.2000    0.0000 C   0  0  0  0  0  0  0  0  0  0  0  0
   18.9750    1.4000    0.0000 C   0  0  0  0  0  0  0  0  0  0  0  0
   20.1874    2.1000    0.0000 C   0  0  0  0  0  0  0  0  0  0  0  0
   20.1874    3.5000    0.0000 C   0  0  0  0  0  0  0  0  0  0  0  0
   18.9750    4.2000    0.0000 C   0  0  0  0  0  0  0  0  0  0  0  0
   21.3998    1.4000    0.0000 C   0  0  0  0  0  0  0  0  0  0  0  0
   21.3998    0.0000    0.0000 O   0  0  0  0  0  0  0  0  0  0  0  0
  1  2  1  0  0  0  0
  2  3  1  0  0  0  0
  3  4  1  0  0  0  0
  4  5  1  0  0  0  0
  5  6  1  0  0  0  0
  6  1  1  0  0  0  0
  3  7  1  0  0  0  0
  1  8  1  0  0  0  0
  7  9  1  0  0  0  0
  8  9  1  0  0  0  0
  5 10  1  0  0  0  0
 10  9  1  0  0  0  0
  5 11  1  0  0  0  0
 11 12  1  0  0  0  0
 12 13  1  0  0  0  0
 12 14  2  0  0  0  0
 13 15  1  0  0  0  0
 15 16  1  0  0  0  0
 16 17  1  0  0  0  0
 17 18  1  0  0  0  0
 18 19  1  0  0  0  0
 18 20  2  0  0  0  0
 19 21  1  0  0  0  0
 21 22  2  0  0  0  0
 22 23  1  0  0  0  0
 23 24  2  0  0  0  0
 24 25  1  0  0  0  0
 25 26  2  0  0  0  0
 26 21  1  0  0  0  0
 24 27  1  0  0  0  0
 27 28  2  0  0  0  0
 28 29  1  0  0  0  0
 29 30  2  0  0  0  0
 30 25  1  0  0  0  0
 28 31  1  0  0  0  0
 31 32  2  0  0  0  0
M  END
> <Molecule Name>
838

> <CDD Number>
CDD-15766

> <Human_sEH_IC50_uM>
0.19

> <Mouse_sEH_IC50_uM>
11.0

$$$$

SketchEl molfile

 25 27  0  0  0  0  0  0  0  0999 V2000
    0.9568    2.1993    0.0000 C   0  0  0  0  0  0  0  0  0  0  0  0
    0.0000    0.5421    0.0000 C   0  0  0  0  0  0  0  0  0  0  0  0
    1.8400    1.0679    0.0000 C   0  0  0  0  0  0  0  0  0  0  0  0
    3.6912    0.5421    0.0000 C   0  0  0  0  0  0  0  0  0  0  0  0
    4.6482    2.1993    0.0000 C   0  0  0  0  0  0  0  0  0  0  0  0
    2.8081    1.6736    0.0000 C   0  0  0  0  0  0  0  0  0  0  0  0
    1.8400    2.9816    0.0000 C   0  0  0  0  0  0  0  0  0  0  0  0
    0.9568    4.1130    0.0000 C   0  0  0  0  0  0  0  0  0  0  0  0
    2.7969    4.6389    0.0000 C   0  0  0  0  0  0  0  0  0  0  0  0
    4.6482    4.1130    0.0000 C   0  0  0  0  0  0  0  0  0  0  0  0
    5.8607    1.4993    0.0000 C   0  0  0  0  0  0  0  0  0  0  0  0
    6.8506    2.1000    0.0000 C   0  0  0  0  0  0  0  0  0  0  0  0
    8.0630    1.4000    0.0000 N   0  0  0  0  0  0  0  0  0  0  0  0
    6.8506    3.5000    0.0000 O   0  0  0  0  0  0  0  0  0  0  0  0
    9.2755    2.1000    0.0000 C   0  0  0  0  0  0  0  0  0  0  0  0
   10.4879    1.4000    0.0000 C   0  0  0  0  0  0  0  0  0  0  0  0
   11.7003    2.1000    0.0000 C   0  0  0  0  0  0  0  0  0  0  0  0
   12.9128    1.4000    0.0000 C   0  0  0  0  0  0  0  0  0  0  0  0
   14.1252    2.1000    0.0000 O   0  0  0  0  0  0  0  0  0  0  0  0
   15.3377    1.4000    0.0000 C   0  0  0  0  0  0  0  0  0  0  0  0
   12.9128    0.0000    0.0000 O   0  0  0  0  0  0  0  0  0  0  0  0
   16.5501    2.1000    0.0000 C   0  0  0  0  0  0  0  0  0  0  0  0
   17.7625    1.4000    0.0000 C   0  0  0  0  0  0  0  0  0  0  0  0
   18.9750    2.1000    0.0000 C   0  0  0  0  0  0  0  0  0  0  0  0
   20.1874    1.4000    0.0000 C   0  0  0  0  0  0  0  0  0  0  0  0
  1  2  1  0  0  0  0
  2  3  1  0  0  0  0
  3  4  1  0  0  0  0
  4  5  1  0  0  0  0
  5  6  1  0  0  0  0
  6  1  1  0  0  0  0
  3  7  1  0  0  0  0
  1  8  1  0  0  0  0
  7  9  1  0  0  0  0
  8  9  1  0  0  0  0
  5 10  1  0  0  0  0
 10  9  1  0  0  0  0
  5 11  1  0  0  0  0
 11 12  1  0  0  0  0
 12 13  1  0  0  0  0
 12 14  2  0  0  0  0
 13 15  1  0  0  0  0
 15 16  1  0  0  0  0
 16 17  1  0  0  0  0
 17 18  1  0  0  0  0
 18 19  1  0  0  0  0
 19 20  1  0  0  0  0
 18 21  2  0  0  0  0
 20 22  1  0  0  0  0
 22 23  1  0  0  0  0
 23 24  1  0  0  0  0
 24 25  1  0  0  0  0
M  END
> <Molecule Name>
837

> <CDD Number>
CDD-15765

> <Human_sEH_IC50_uM>
12.5

> <Mouse_sEH_IC50_uM>
38.0

$$$$

SketchEl molfile

 31 33  0  0  0  0  0  0  0  0999 V2000
    0.9568    2.1993    0.0000 C   0  0  0  0  0  0  0  0  0  0  0  0
    0.0000    0.5421    0.0000 C   0  0  0  0  0  0  0  0  0  0  0  0
    1.8400    1.0679    0.0000 C   0  0  0  0  0  0  0  0  0  0  0  0
    3.6912    0.5421    0.0000 C   0  0  0  0  0  0  0  0  0  0  0  0
    4.6482    2.1993    0.0000 C   0  0  0  0  0  0  0  0  0  0  0  0
    2.8081    1.6736    0.0000 C   0  0  0  0  0  0  0  0  0  0  0  0
    1.8400    2.9816    0.0000 C   0  0  0  0  0  0  0  0  0  0  0  0
    0.9568    4.1130    0.0000 C   0  0  0  0  0  0  0  0  0  0  0  0
    2.7969    4.6389    0.0000 C   0  0  0  0  0  0  0  0  0  0  0  0
    4.6482    4.1130    0.0000 C   0  0  0  0  0  0  0  0  0  0  0  0
    5.8607    1.4993    0.0000 N   0  0  0  0  0  0  0  0  0  0  0  0
    6.8506    2.1000    0.0000 C   0  0  0  0  0  0  0  0  0  0  0  0
    8.0630    1.4000    0.0000 N   0  0  0  0  0  0  0  0  0  0  0  0
    6.8506    3.5000    0.0000 O   0  0  0  0  0  0  0  0  0  0  0  0
    9.2755    2.1000    0.0000 C   0  0  0  0  0  0  0  0  0  0  0  0
   10.4879    1.4000    0.0000 C   0  0  0  0  0  0  0  0  0  0  0  0
   11.7003    2.1000    0.0000 C   0  0  0  0  0  0  0  0  0  0  0  0
   12.9128    1.4000    0.0000 C   0  0  0  0  0  0  0  0  0  0  0  0
   14.1252    2.1000    0.0000 N   0  0  0  0  0  0  0  0  0  0  0  0
   15.3377    1.4000    0.0000 C   0  0  0  0  0  0  0  0  0  0  0  0
   16.5501    2.1000    0.0000 C   0  0  0  0  0  0  0  0  0  0  0  0
   17.7625    1.4000    0.0000 C   0  0  0  0  0  0  0  0  0  0  0  0
   18.9750    2.1000    0.0000 C   0  0  0  0  0  0  0  0  0  0  0  0
   20.1874    1.4000    0.0000 C   0  0  0  0  0  0  0  0  0  0  0  0
   21.3998    2.1000    0.0000 C   0  0  0  0  0  0  0  0  0  0  0  0
   22.6123    1.4000    0.0000 C   0  0  0  0  0  0  0  0  0  0  0  0
   23.8247    2.1000    0.0000 O   0  0  0  0  0  0  0  0  0  0  0  0
   22.6123    0.0000    0.0000 O   0  0  0  0  0  0  0  0  0  0  0  0
   25.0371    1.4000    0.0000 C   0  0  0  0  0  0  0  0  0  0  0  0
   12.9128    0.0000    0.0000 O   0  0  0  0  0  0  0  0  0  0  0  0
   26.2496    2.1000    0.0000 C   0  0  0  0  0  0  0  0  0  0  0  0
  1  2  1  0  0  0  0
  2  3  1  0  0  0  0
  3  4  1  0  0  0  0
  4  5  1  0  0  0  0
  5  6  1  0  0  0  0
  6  1  1  0  0  0  0
  3  7  1  0  0  0  0
  1  8  1  0  0  0  0
  7  9  1  0  0  0  0
  8  9  1  0  0  0  0
  5 10  1  0  0  0  0
 10  9  1  0  0  0  0
  5 11  1  0  0  0  0
 11 12  1  0  0  0  0
 12 13  1  0  0  0  0
 12 14  2  0  0  0  0
 13 15  1  0  0  0  0
 15 16  1  0  0  0  0
 16 17  1  0  0  0  0
 17 18  1  0  0  0  0
 18 19  1  0  0  0  0
 19 20  1  0  0  0  0
 20 21  1  0  0  0  0
 21 22  1  0  0  0  0
 22 23  1  0  0  0  0
 23 24  1  0  0  0  0
 24 25  1  0  0  0  0
 25 26  1  0  0  0  0
 26 27  1  0  0  0  0
 26 28  2  0  0  0  0
 27 29  1  0  0  0  0
 18 30  2  0  0  0  0
 29 31  1  0  0  0  0
M  END
> <Molecule Name>
836

> <CDD Number>
CDD-15764

> <Human_sEH_IC50_uM>
1.34

> <Mouse_sEH_IC50_uM>
0.09

$$$$

SketchEl molfile

 25 27  0  0  0  0  0  0  0  0999 V2000
    0.9568    2.1993    0.0000 C   0  0  0  0  0  0  0  0  0  0  0  0
    0.0000    0.5421    0.0000 C   0  0  0  0  0  0  0  0  0  0  0  0
    1.8400    1.0679    0.0000 C   0  0  0  0  0  0  0  0  0  0  0  0
    3.6912    0.5421    0.0000 C   0  0  0  0  0  0  0  0  0  0  0  0
    4.6482    2.1993    0.0000 C   0  0  0  0  0  0  0  0  0  0  0  0
    2.8081    1.6736    0.0000 C   0  0  0  0  0  0  0  0  0  0  0  0
    1.8400    2.9816    0.0000 C   0  0  0  0  0  0  0  0  0  0  0  0
    0.9568    4.1130    0.0000 C   0  0  0  0  0  0  0  0  0  0  0  0
    2.7968    4.6389    0.0000 C   0  0  0  0  0  0  0  0  0  0  0  0
    4.6482    4.1130    0.0000 C   0  0  0  0  0  0  0  0  0  0  0  0
    5.8607    1.4993    0.0000 N   0  0  0  0  0  0  0  0  0  0  0  0
    6.8506    2.1000    0.0000 C   0  0  0  0  0  0  0  0  0  0  0  0
    8.0630    1.4000    0.0000 C   0  0  0  0  0  0  0  0  0  0  0  0
    6.8506    3.5000    0.0000 O   0  0  0  0  0  0  0  0  0  0  0  0
    9.2755    2.1000    0.0000 C   0  0  0  0  0  0  0  0  0  0  0  0
   10.4879    1.4000    0.0000 C   0  0  0  0  0  0  0  0  0  0  0  0
   11.7003    2.1000    0.0000 C   0  0  0  0  0  0  0  0  0  0  0  0
   12.9128    1.4000    0.0000 C   0  0  0  0  0  0  0  0  0  0  0  0
   14.1252    2.1000    0.0000 O   0  0  0  0  0  0  0  0  0  0  0  0
   12.9128    0.0000    0.0000 O   0  0  0  0  0  0  0  0  0  0  0  0
   15.3376    1.4000    0.0000 C   0  0  0  0  0  0  0  0  0  0  0  0
   16.5501    2.1000    0.0000 C   0  0  0  0  0  0  0  0  0  0  0  0
   17.7625    1.4000    0.0000 C   0  0  0  0  0  0  0  0  0  0  0  0
   18.9750    2.1000    0.0000 C   0  0  0  0  0  0  0  0  0  0  0  0
   20.1874    1.4000    0.0000 C   0  0  0  0  0  0  0  0  0  0  0  0
  1  2  1  0  0  0  0
  2  3  1  0  0  0  0
  3  4  1  0  0  0  0
  4  5  1  0  0  0  0
  5  6  1  0  0  0  0
  6  1  1  0  0  0  0
  3  7  1  0  0  0  0
  1  8  1  0  0  0  0
  7  9  1  0  0  0  0
  8  9  1  0  0  0  0
  5 10  1  0  0  0  0
 10  9  1  0  0  0  0
  5 11  1  0  0  0  0
 11 12  1  0  0  0  0
 12 13  1  0  0  0  0
 12 14  2  0  0  0  0
 13 15  1  0  0  0  0
 15 16  1  0  0  0  0
 16 17  1  0  0  0  0
 17 18  1  0  0  0  0
 18 19  1  0  0  0  0
 18 20  2  0  0  0  0
 19 21  1  0  0  0  0
 21 22  1  0  0  0  0
 22 23  1  0  0  0  0
 23 24  1  0  0  0  0
 24 25  1  0  0  0  0
M  END
> <Molecule Name>
834

> <CDD Number>
CDD-15763

> <Human_sEH_IC50_uM>
2.4

> <Mouse_sEH_IC50_uM>
0.34

$$$$

SketchEl molfile

 25 28  0  0  0  0  0  0  0  0999 V2000
    0.9568    2.2987    0.0000 C   0  0  0  0  0  0  0  0  0  0  0  0
    0.0000    0.6414    0.0000 C   0  0  0  0  0  0  0  0  0  0  0  0
    1.8400    1.1673    0.0000 C   0  0  0  0  0  0  0  0  0  0  0  0
    3.6912    0.6414    0.0000 C   0  0  0  0  0  0  0  0  0  0  0  0
    4.6482    2.2987    0.0000 C   0  0  0  0  0  0  0  0  0  0  0  0
    2.8081    1.7730    0.0000 C   0  0  0  0  0  0  0  0  0  0  0  0
    1.8400    3.0809    0.0000 C   0  0  0  0  0  0  0  0  0  0  0  0
    0.9568    4.2123    0.0000 C   0  0  0  0  0  0  0  0  0  0  0  0
    2.7969    4.7382    0.0000 C   0  0  0  0  0  0  0  0  0  0  0  0
    4.6482    4.2123    0.0000 C   0  0  0  0  0  0  0  0  0  0  0  0
    5.8607    1.5987    0.0000 N   0  0  0  0  0  0  0  0  0  0  0  0
    6.8506    2.1993    0.0000 C   0  0  0  0  0  0  0  0  0  0  0  0
    8.0630    1.4993    0.0000 N   0  0  0  0  0  0  0  0  0  0  0  0
    6.8506    3.5993    0.0000 O   0  0  0  0  0  0  0  0  0  0  0  0
    9.0530    2.1000    0.0000 C   0  0  0  0  0  0  0  0  0  0  0  0
   10.2654    1.4000    0.0000 C   0  0  0  0  0  0  0  0  0  0  0  0
   11.4779    2.1000    0.0000 C   0  0  0  0  0  0  0  0  0  0  0  0
   11.4779    3.5000    0.0000 C   0  0  0  0  0  0  0  0  0  0  0  0
   10.2654    4.2000    0.0000 C   0  0  0  0  0  0  0  0  0  0  0  0
    9.0530    3.5000    0.0000 C   0  0  0  0  0  0  0  0  0  0  0  0
   12.6903    1.4000    0.0000 C   0  0  0  0  0  0  0  0  0  0  0  0
   13.9027    2.1000    0.0000 O   0  0  0  0  0  0  0  0  0  0  0  0
   12.6903    0.0000    0.0000 O   0  0  0  0  0  0  0  0  0  0  0  0
   15.1152    1.4000    0.0000 C   0  0  0  0  0  0  0  0  0  0  0  0
   16.3276    2.1000    0.0000 C   0  0  0  0  0  0  0  0  0  0  0  0
  1  2  1  0  0  0  0
  2  3  1  0  0  0  0
  3  4  1  0  0  0  0
  4  5  1  0  0  0  0
  5  6  1  0  0  0  0
  6  1  1  0  0  0  0
  3  7  1  0  0  0  0
  1  8  1  0  0  0  0
  7  9  1  0  0  0  0
  8  9  1  0  0  0  0
  5 10  1  0  0  0  0
 10  9  1  0  0  0  0
  5 11  1  0  0  0  0
 11 12  1  0  0  0  0
 12 13  1  0  0  0  0
 12 14  2  0  0  0  0
 13 15  1  0  0  0  0
 15 16  2  0  0  0  0
 16 17  1  0  0  0  0
 17 18  2  0  0  0  0
 18 19  1  0  0  0  0
 19 20  2  0  0  0  0
 20 15  1  0  0  0  0
 17 21  1  0  0  0  0
 21 22  1  0  0  0  0
 21 23  2  0  0  0  0
 22 24  1  0  0  0  0
 24 25  1  0  0  0  0
M  END
> <Molecule Name>
833

> <CDD Number>
CDD-15762

> <Human_sEH_IC50_uM>
0.5

> <Mouse_sEH_IC50_uM>
0.26

$$$$

SketchEl molfile

 32 31  0  0  0  0  0  0  0  0999 V2000
    0.0000    2.2987    0.0000 O   0  0  0  0  0  0  0  0  0  0  0  0
    1.2124    1.5987    0.0000 C   0  0  0  0  0  0  0  0  0  0  0  0
    2.4249    2.2987    0.0000 C   0  0  0  0  0  0  0  0  0  0  0  0
    1.2124    0.1987    0.0000 O   0  0  0  0  0  0  0  0  0  0  0  0
    3.6373    1.5987    0.0000 C   0  0  0  0  0  0  0  0  0  0  0  0
    4.8497    2.2987    0.0000 C   0  0  0  0  0  0  0  0  0  0  0  0
    6.0622    1.5987    0.0000 C   0  0  0  0  0  0  0  0  0  0  0  0
    7.2746    2.2987    0.0000 C   0  0  0  0  0  0  0  0  0  0  0  0
    8.4870    1.5987    0.0000 C   0  0  0  0  0  0  0  0  0  0  0  0
    9.6995    2.2987    0.0000 C   0  0  0  0  0  0  0  0  0  0  0  0
   10.9119    1.5987    0.0000 C   0  0  0  0  0  0  0  0  0  0  0  0
   12.1244    2.2987    0.0000 C   0  0  0  0  0  0  0  0  0  0  0  0
   13.3368    1.5987    0.0000 C   0  0  0  0  0  0  0  0  0  0  0  0
   14.5492    2.2987    0.0000 C   0  0  0  0  0  0  0  0  0  0  0  0
   15.7617    1.5987    0.0000 N   0  0  0  0  0  0  0  0  0  0  0  0
   16.7516    2.1993    0.0000 C   0  0  0  0  0  0  0  0  0  0  0  0
   17.9640    1.4993    0.0000 N   0  0  0  0  0  0  0  0  0  0  0  0
   16.7516    3.5993    0.0000 O   0  0  0  0  0  0  0  0  0  0  0  0
   18.9540    2.1000    0.0000 C   0  0  0  0  0  0  0  0  0  0  0  0
   20.1664    1.4000    0.0000 C   0  0  0  0  0  0  0  0  0  0  0  0
   21.3789    2.1000    0.0000 C   0  0  0  0  0  0  0  0  0  0  0  0
   22.5913    1.4000    0.0000 C   0  0  0  0  0  0  0  0  0  0  0  0
   23.8037    2.1000    0.0000 C   0  0  0  0  0  0  0  0  0  0  0  0
   25.0162    1.4000    0.0000 C   0  0  0  0  0  0  0  0  0  0  0  0
   26.2286    2.1000    0.0000 C   0  0  0  0  0  0  0  0  0  0  0  0
   27.4410    1.4000    0.0000 C   0  0  0  0  0  0  0  0  0  0  0  0
   28.6535    2.1000    0.0000 C   0  0  0  0  0  0  0  0  0  0  0  0
   29.8659    1.4000    0.0000 C   0  0  0  0  0  0  0  0  0  0  0  0
   31.0784    2.1000    0.0000 C   0  0  0  0  0  0  0  0  0  0  0  0
   32.2908    1.4000    0.0000 C   0  0  0  0  0  0  0  0  0  0  0  0
   33.5032    2.1000    0.0000 O   0  0  0  0  0  0  0  0  0  0  0  0
   32.2908    0.0000    0.0000 O   0  0  0  0  0  0  0  0  0  0  0  0
  1  2  1  0  0  0  0
  2  3  1  0  0  0  0
  2  4  2  0  0  0  0
  3  5  1  0  0  0  0
  5  6  1  0  0  0  0
  6  7  1  0  0  0  0
  7  8  1  0  0  0  0
  8  9  1  0  0  0  0
  9 10  1  0  0  0  0
 10 11  1  0  0  0  0
 11 12  1  0  0  0  0
 12 13  1  0  0  0  0
 13 14  1  0  0  0  0
 14 15  1  0  0  0  0
 15 16  1  0  0  0  0
 16 17  1  0  0  0  0
 16 18  2  0  0  0  0
 17 19  1  0  0  0  0
 19 20  1  0  0  0  0
 20 21  1  0  0  0  0
 21 22  1  0  0  0  0
 22 23  1  0  0  0  0
 23 24  1  0  0  0  0
 24 25  1  0  0  0  0
 25 26  1  0  0  0  0
 26 27  1  0  0  0  0
 27 28  1  0  0  0  0
 28 29  1  0  0  0  0
 29 30  1  0  0  0  0
 30 31  1  0  0  0  0
 30 32  2  0  0  0  0
M  END
> <Molecule Name>
832

> <CDD Number>
CDD-15761

> <Human_sEH_IC50_uM>
0.94

> <Mouse_sEH_IC50_uM>
0.07

$$$$

SketchEl molfile

 19 19  0  0  0  0  0  0  0  0999 V2000
    1.2124    2.1993    0.0000 C   0  0  0  0  0  0  0  0  0  0  0  0
    2.4249    1.4993    0.0000 C   0  0  0  0  0  0  0  0  0  0  0  0
    3.6373    2.1993    0.0000 C   0  0  0  0  0  0  0  0  0  0  0  0
    3.6373    3.5993    0.0000 C   0  0  0  0  0  0  0  0  0  0  0  0
    2.4249    4.2993    0.0000 C   0  0  0  0  0  0  0  0  0  0  0  0
    1.2124    3.5993    0.0000 C   0  0  0  0  0  0  0  0  0  0  0  0
    0.0000    1.4993    0.0000 Cl  0  0  0  0  0  0  0  0  0  0  0  0
    4.8497    1.4993    0.0000 O   0  0  0  0  0  0  0  0  0  0  0  0
    6.0622    2.1993    0.0000 C   0  0  0  0  0  0  0  0  0  0  0  0
    7.2746    1.4993    0.0000 N   0  0  0  0  0  0  0  0  0  0  0  0
    6.0622    3.5993    0.0000 O   0  0  0  0  0  0  0  0  0  0  0  0
    8.2646    2.1000    0.0000 C   0  0  0  0  0  0  0  0  0  0  0  0
    9.4770    1.4000    0.0000 C   0  0  0  0  0  0  0  0  0  0  0  0
   10.6894    2.1000    0.0000 C   0  0  0  0  0  0  0  0  0  0  0  0
   11.9019    1.4000    0.0000 C   0  0  0  0  0  0  0  0  0  0  0  0
   13.1143    2.1000    0.0000 O   0  0  0  0  0  0  0  0  0  0  0  0
   11.9019    0.0000    0.0000 O   0  0  0  0  0  0  0  0  0  0  0  0
   14.3267    1.4000    0.0000 C   0  0  0  0  0  0  0  0  0  0  0  0
   15.5392    2.1000    0.0000 C   0  0  0  0  0  0  0  0  0  0  0  0
  1  2  2  0  0  0  0
  2  3  1  0  0  0  0
  3  4  2  0  0  0  0
  4  5  1  0  0  0  0
  5  6  2  0  0  0  0
  6  1  1  0  0  0  0
  1  7  1  0  0  0  0
  3  8  1  0  0  0  0
  8  9  1  0  0  0  0
  9 10  1  0  0  0  0
  9 11  2  0  0  0  0
 10 12  1  0  0  0  0
 12 13  1  0  0  0  0
 13 14  1  0  0  0  0
 14 15  1  0  0  0  0
 15 16  1  0  0  0  0
 15 17  2  0  0  0  0
 16 18  1  0  0  0  0
 18 19  1  0  0  0  0
M  END
> <Molecule Name>
831

> <CDD Number>
CDD-15760

> <Human_sEH_IC50_uM>
100.0

> <Mouse_sEH_IC50_uM>
100.0

$$$$

SketchEl molfile

 29 33  0  0  0  0  0  0  0  0999 V2000
    0.9568    2.2249    0.0000 C   0  0  0  0  0  0  0  0  0  0  0  0
    0.0000    0.5676    0.0000 C   0  0  0  0  0  0  0  0  0  0  0  0
    1.8400    1.0935    0.0000 C   0  0  0  0  0  0  0  0  0  0  0  0
    3.6912    0.5676    0.0000 C   0  0  0  0  0  0  0  0  0  0  0  0
    4.6482    2.2249    0.0000 C   0  0  0  0  0  0  0  0  0  0  0  0
    2.8081    1.6992    0.0000 C   0  0  0  0  0  0  0  0  0  0  0  0
    1.8400    3.0072    0.0000 C   0  0  0  0  0  0  0  0  0  0  0  0
    0.9568    4.1385    0.0000 C   0  0  0  0  0  0  0  0  0  0  0  0
    2.7969    4.6644    0.0000 C   0  0  0  0  0  0  0  0  0  0  0  0
    4.6482    4.1385    0.0000 C   0  0  0  0  0  0  0  0  0  0  0  0
    5.8607    1.5249    0.0000 N   0  0  0  0  0  0  0  0  0  0  0  0
    6.8506    2.1256    0.0000 C   0  0  0  0  0  0  0  0  0  0  0  0
    8.0630    1.4256    0.0000 N   0  0  0  0  0  0  0  0  0  0  0  0
    6.8506    3.5256    0.0000 O   0  0  0  0  0  0  0  0  0  0  0  0
    9.2755    2.1256    0.0000 C   0  0  0  0  0  0  0  0  0  0  0  0
   10.4879    1.4256    0.0000 C   0  0  0  0  0  0  0  0  0  0  0  0
   11.7003    2.1256    0.0000 C   0  0  0  0  0  0  0  0  0  0  0  0
   12.9128    1.4256    0.0000 C   0  0  0  0  0  0  0  0  0  0  0  0
   14.1252    2.1256    0.0000 O   0  0  0  0  0  0  0  0  0  0  0  0
   15.3377    1.4256    0.0000 C   0  0  0  0  0  0  0  0  0  0  0  0
   12.9128    0.0256    0.0000 O   0  0  0  0  0  0  0  0  0  0  0  0
   15.7000    0.0733    0.0000 C   0  0  0  0  0  0  0  0  0  0  0  0
   17.0981    0.0000    0.0000 N   0  0  0  0  0  0  0  0  0  0  0  0
   17.5998    1.3070    0.0000 C   0  0  0  0  0  0  0  0  0  0  0  0
   16.5118    2.1881    0.0000 C   0  0  0  0  0  0  0  0  0  0  0  0
   18.9521    1.6694    0.0000 C   0  0  0  0  0  0  0  0  0  0  0  0
   19.3144    3.0217    0.0000 C   0  0  0  0  0  0  0  0  0  0  0  0
   18.3245    4.0116    0.0000 C   0  0  0  0  0  0  0  0  0  0  0  0
   16.9722    3.6493    0.0000 C   0  0  0  0  0  0  0  0  0  0  0  0
  1  2  1  0  0  0  0
  2  3  1  0  0  0  0
  3  4  1  0  0  0  0
  4  5  1  0  0  0  0
  5  6  1  0  0  0  0
  6  1  1  0  0  0  0
  3  7  1  0  0  0  0
  1  8  1  0  0  0  0
  7  9  1  0  0  0  0
  8  9  1  0  0  0  0
  5 10  1  0  0  0  0
 10  9  1  0  0  0  0
  5 11  1  0  0  0  0
 11 12  1  0  0  0  0
 12 13  1  0  0  0  0
 12 14  2  0  0  0  0
 13 15  1  0  0  0  0
 15 16  1  0  0  0  0
 16 17  1  0  0  0  0
 17 18  1  0  0  0  0
 18 19  1  0  0  0  0
 19 20  1  0  0  0  0
 18 21  2  0  0  0  0
 20 22  2  0  0  0  0
 22 23  1  0  0  0  0
 23 24  1  0  0  0  0
 24 25  1  0  0  0  0
 25 20  1  0  0  0  0
 24 26  2  0  0  0  0
 26 27  1  0  0  0  0
 27 28  2  0  0  0  0
 28 29  1  0  0  0  0
 29 25  2  0  0  0  0
M  END
> <Molecule Name>
830

> <CDD Number>
CDD-15759

> <Human_sEH_IC50_uM>
0.12

> <Mouse_sEH_IC50_uM>
0.05

$$$$

SketchEl molfile

 32 36  0  0  0  0  0  0  0  0999 V2000
    0.9568    4.2993    0.0000 C   0  0  0  0  0  0  0  0  0  0  0  0
    0.0000    2.6421    0.0000 C   0  0  0  0  0  0  0  0  0  0  0  0
    1.8400    3.1679    0.0000 C   0  0  0  0  0  0  0  0  0  0  0  0
    3.6912    2.6421    0.0000 C   0  0  0  0  0  0  0  0  0  0  0  0
    4.6482    4.2993    0.0000 C   0  0  0  0  0  0  0  0  0  0  0  0
    2.8081    3.7736    0.0000 C   0  0  0  0  0  0  0  0  0  0  0  0
    1.8400    5.0816    0.0000 C   0  0  0  0  0  0  0  0  0  0  0  0
    0.9568    6.2130    0.0000 C   0  0  0  0  0  0  0  0  0  0  0  0
    2.7969    6.7389    0.0000 C   0  0  0  0  0  0  0  0  0  0  0  0
    4.6482    6.2130    0.0000 C   0  0  0  0  0  0  0  0  0  0  0  0
    5.8607    3.5993    0.0000 N   0  0  0  0  0  0  0  0  0  0  0  0
    6.8506    4.2000    0.0000 C   0  0  0  0  0  0  0  0  0  0  0  0
    8.0630    3.5000    0.0000 N   0  0  0  0  0  0  0  0  0  0  0  0
    6.8506    5.6000    0.0000 O   0  0  0  0  0  0  0  0  0  0  0  0
    9.2755    4.2000    0.0000 C   0  0  0  0  0  0  0  0  0  0  0  0
   10.4879    3.5000    0.0000 C   0  0  0  0  0  0  0  0  0  0  0  0
   11.7003    4.2000    0.0000 C   0  0  0  0  0  0  0  0  0  0  0  0
   12.9128    3.5000    0.0000 C   0  0  0  0  0  0  0  0  0  0  0  0
   14.1252    4.2000    0.0000 O   0  0  0  0  0  0  0  0  0  0  0  0
   15.3377    3.5000    0.0000 C   0  0  0  0  0  0  0  0  0  0  0  0
   12.9128    2.1000    0.0000 O   0  0  0  0  0  0  0  0  0  0  0  0
   15.3377    2.1000    0.0000 C   0  0  0  0  0  0  0  0  0  0  0  0
   16.5501    1.4000    0.0000 C   0  0  0  0  0  0  0  0  0  0  0  0
   17.7625    2.1000    0.0000 C   0  0  0  0  0  0  0  0  0  0  0  0
   17.7625    3.5000    0.0000 C   0  0  0  0  0  0  0  0  0  0  0  0
   16.5501    4.2000    0.0000 C   0  0  0  0  0  0  0  0  0  0  0  0
   18.9750    1.4000    0.0000 C   0  0  0  0  0  0  0  0  0  0  0  0
   20.1874    2.1000    0.0000 C   0  0  0  0  0  0  0  0  0  0  0  0
   20.1874    3.5000    0.0000 C   0  0  0  0  0  0  0  0  0  0  0  0
   18.9750    4.2000    0.0000 O   0  0  0  0  0  0  0  0  0  0  0  0
   18.9750    0.0000    0.0000 C   0  0  0  0  0  0  0  0  0  0  0  0
   21.3998    4.2000    0.0000 O   0  0  0  0  0  0  0  0  0  0  0  0
  1  2  1  0  0  0  0
  2  3  1  0  0  0  0
  3  4  1  0  0  0  0
  4  5  1  0  0  0  0
  5  6  1  0  0  0  0
  6  1  1  0  0  0  0
  3  7  1  0  0  0  0
  1  8  1  0  0  0  0
  7  9  1  0  0  0  0
  8  9  1  0  0  0  0
  5 10  1  0  0  0  0
 10  9  1  0  0  0  0
  5 11  1  0  0  0  0
 11 12  1  0  0  0  0
 12 13  1  0  0  0  0
 12 14  2  0  0  0  0
 13 15  1  0  0  0  0
 15 16  1  0  0  0  0
 16 17  1  0  0  0  0
 17 18  1  0  0  0  0
 18 19  1  0  0  0  0
 19 20  1  0  0  0  0
 18 21  2  0  0  0  0
 20 22  2  0  0  0  0
 22 23  1  0  0  0  0
 23 24  2  0  0  0  0
 24 25  1  0  0  0  0
 25 26  2  0  0  0  0
 26 20  1  0  0  0  0
 24 27  1  0  0  0  0
 27 28  2  0  0  0  0
 28 29  1  0  0  0  0
 29 30  1  0  0  0  0
 30 25  1  0  0  0  0
 27 31  1  0  0  0  0
 29 32  2  0  0  0  0
M  END
> <Molecule Name>
829

> <Human_sEH_IC50_uM>
0.1

> <Mouse_sEH_IC50_uM>
0.05

$$$$

SketchEl molfile

 30 34  0  0  0  0  0  0  0  0999 V2000
    0.9568    2.8993    0.0000 C   0  0  0  0  0  0  0  0  0  0  0  0
    0.0000    1.2421    0.0000 C   0  0  0  0  0  0  0  0  0  0  0  0
    1.8400    1.7679    0.0000 C   0  0  0  0  0  0  0  0  0  0  0  0
    3.6912    1.2421    0.0000 C   0  0  0  0  0  0  0  0  0  0  0  0
    4.6482    2.8993    0.0000 C   0  0  0  0  0  0  0  0  0  0  0  0
    2.8081    2.3736    0.0000 C   0  0  0  0  0  0  0  0  0  0  0  0
    1.8400    3.6816    0.0000 C   0  0  0  0  0  0  0  0  0  0  0  0
    0.9568    4.8130    0.0000 C   0  0  0  0  0  0  0  0  0  0  0  0
    2.7969    5.3389    0.0000 C   0  0  0  0  0  0  0  0  0  0  0  0
    4.6482    4.8130    0.0000 C   0  0  0  0  0  0  0  0  0  0  0  0
    5.8607    2.1993    0.0000 N   0  0  0  0  0  0  0  0  0  0  0  0
    6.8506    2.8000    0.0000 C   0  0  0  0  0  0  0  0  0  0  0  0
    8.0630    2.1000    0.0000 N   0  0  0  0  0  0  0  0  0  0  0  0
    6.8506    4.2000    0.0000 O   0  0  0  0  0  0  0  0  0  0  0  0
    9.2755    2.8000    0.0000 C   0  0  0  0  0  0  0  0  0  0  0  0
   10.4879    2.1000    0.0000 C   0  0  0  0  0  0  0  0  0  0  0  0
   11.7003    2.8000    0.0000 C   0  0  0  0  0  0  0  0  0  0  0  0
   12.9128    2.1000    0.0000 C   0  0  0  0  0  0  0  0  0  0  0  0
   14.1252    2.8000    0.0000 O   0  0  0  0  0  0  0  0  0  0  0  0
   15.3377    2.1000    0.0000 C   0  0  0  0  0  0  0  0  0  0  0  0
   12.9128    0.7000    0.0000 O   0  0  0  0  0  0  0  0  0  0  0  0
   15.3377    0.7000    0.0000 C   0  0  0  0  0  0  0  0  0  0  0  0
   16.5501    0.0000    0.0000 C   0  0  0  0  0  0  0  0  0  0  0  0
   17.7625    0.7000    0.0000 C   0  0  0  0  0  0  0  0  0  0  0  0
   17.7625    2.1000    0.0000 C   0  0  0  0  0  0  0  0  0  0  0  0
   16.5501    2.8000    0.0000 C   0  0  0  0  0  0  0  0  0  0  0  0
   18.9750    0.0000    0.0000 C   0  0  0  0  0  0  0  0  0  0  0  0
   20.1874    0.7000    0.0000 C   0  0  0  0  0  0  0  0  0  0  0  0
   20.1874    2.1000    0.0000 C   0  0  0  0  0  0  0  0  0  0  0  0
   18.9750    2.8000    0.0000 C   0  0  0  0  0  0  0  0  0  0  0  0
  1  2  1  0  0  0  0
  2  3  1  0  0  0  0
  3  4  1  0  0  0  0
  4  5  1  0  0  0  0
  5  6  1  0  0  0  0
  6  1  1  0  0  0  0
  3  7  1  0  0  0  0
  1  8  1  0  0  0  0
  7  9  1  0  0  0  0
  8  9  1  0  0  0  0
  5 10  1  0  0  0  0
 10  9  1  0  0  0  0
  5 11  1  0  0  0  0
 11 12  1  0  0  0  0
 12 13  1  0  0  0  0
 12 14  2  0  0  0  0
 13 15  1  0  0  0  0
 15 16  1  0  0  0  0
 16 17  1  0  0  0  0
 17 18  1  0  0  0  0
 18 19  1  0  0  0  0
 19 20  1  0  0  0  0
 18 21  2  0  0  0  0
 20 22  2  0  0  0  0
 22 23  1  0  0  0  0
 23 24  2  0  0  0  0
 24 25  1  0  0  0  0
 25 26  2  0  0  0  0
 26 20  1  0  0  0  0
 24 27  1  0  0  0  0
 27 28  2  0  0  0  0
 28 29  1  0  0  0  0
 29 30  2  0  0  0  0
 30 25  1  0  0  0  0
M  END
> <Molecule Name>
828

> <CDD Number>
CDD-15755

> <Human_sEH_IC50_uM>
0.1

> <Mouse_sEH_IC50_uM>
0.05

$$$$

SketchEl molfile

 22 22  0  0  0  0  0  0  0  0999 V2000
    1.2124    2.1000    0.0000 C   0  0  0  0  0  0  0  0  0  0  0  0
    2.4249    1.4000    0.0000 C   0  0  0  0  0  0  0  0  0  0  0  0
    3.6373    2.1000    0.0000 C   0  0  0  0  0  0  0  0  0  0  0  0
    3.6373    3.5000    0.0000 C   0  0  0  0  0  0  0  0  0  0  0  0
    2.4249    4.2000    0.0000 C   0  0  0  0  0  0  0  0  0  0  0  0
    1.2124    3.5000    0.0000 C   0  0  0  0  0  0  0  0  0  0  0  0
    4.8497    1.4000    0.0000 O   0  0  0  0  0  0  0  0  0  0  0  0
    0.0000    1.4000    0.0000 Cl  0  0  0  0  0  0  0  0  0  0  0  0
    6.0622    2.1000    0.0000 C   0  0  0  0  0  0  0  0  0  0  0  0
    7.2746    1.4000    0.0000 O   0  0  0  0  0  0  0  0  0  0  0  0
    6.0622    3.5000    0.0000 O   0  0  0  0  0  0  0  0  0  0  0  0
    8.4870    2.1000    0.0000 C   0  0  0  0  0  0  0  0  0  0  0  0
    9.6995    1.4000    0.0000 C   0  0  0  0  0  0  0  0  0  0  0  0
   10.9119    2.1000    0.0000 C   0  0  0  0  0  0  0  0  0  0  0  0
   12.1244    1.4000    0.0000 C   0  0  0  0  0  0  0  0  0  0  0  0
   13.3368    2.1000    0.0000 O   0  0  0  0  0  0  0  0  0  0  0  0
   14.5492    1.4000    0.0000 C   0  0  0  0  0  0  0  0  0  0  0  0
   15.7617    2.1000    0.0000 C   0  0  0  0  0  0  0  0  0  0  0  0
   16.9741    1.4000    0.0000 C   0  0  0  0  0  0  0  0  0  0  0  0
   18.1865    2.1000    0.0000 C   0  0  0  0  0  0  0  0  0  0  0  0
   19.3990    1.4000    0.0000 C   0  0  0  0  0  0  0  0  0  0  0  0
   12.1244    0.0000    0.0000 O   0  0  0  0  0  0  0  0  0  0  0  0
  1  2  2  0  0  0  0
  2  3  1  0  0  0  0
  3  4  2  0  0  0  0
  4  5  1  0  0  0  0
  5  6  2  0  0  0  0
  6  1  1  0  0  0  0
  3  7  1  0  0  0  0
  1  8  1  0  0  0  0
  7  9  1  0  0  0  0
  9 10  1  0  0  0  0
  9 11  2  0  0  0  0
 10 12  1  0  0  0  0
 12 13  1  0  0  0  0
 13 14  1  0  0  0  0
 14 15  1  0  0  0  0
 15 16  1  0  0  0  0
 16 17  1  0  0  0  0
 17 18  1  0  0  0  0
 18 19  1  0  0  0  0
 19 20  1  0  0  0  0
 20 21  1  0  0  0  0
 15 22  2  0  0  0  0
M  END
> <Molecule Name>
827

> <CDD Number>
CDD-15757

> <Human_sEH_IC50_uM>
100.0

> <Mouse_sEH_IC50_uM>
100.0

$$$$

SketchEl molfile

 22 22  0  0  0  0  0  0  0  0999 V2000
    1.2124    2.1000    0.0000 C   0  0  0  0  0  0  0  0  0  0  0  0
    2.4249    1.4000    0.0000 C   0  0  0  0  0  0  0  0  0  0  0  0
    3.6373    2.1000    0.0000 C   0  0  0  0  0  0  0  0  0  0  0  0
    3.6373    3.5000    0.0000 C   0  0  0  0  0  0  0  0  0  0  0  0
    2.4249    4.2000    0.0000 C   0  0  0  0  0  0  0  0  0  0  0  0
    1.2124    3.5000    0.0000 C   0  0  0  0  0  0  0  0  0  0  0  0
    4.8497    1.4000    0.0000 C   0  0  0  0  0  0  0  0  0  0  0  0
    0.0000    1.4000    0.0000 Cl  0  0  0  0  0  0  0  0  0  0  0  0
    6.0622    2.1000    0.0000 C   0  0  0  0  0  0  0  0  0  0  0  0
    7.2746    1.4000    0.0000 O   0  0  0  0  0  0  0  0  0  0  0  0
    6.0622    3.5000    0.0000 O   0  0  0  0  0  0  0  0  0  0  0  0
    8.4870    2.1000    0.0000 C   0  0  0  0  0  0  0  0  0  0  0  0
    9.6995    1.4000    0.0000 C   0  0  0  0  0  0  0  0  0  0  0  0
   10.9119    2.1000    0.0000 C   0  0  0  0  0  0  0  0  0  0  0  0
   12.1244    1.4000    0.0000 C   0  0  0  0  0  0  0  0  0  0  0  0
   13.3368    2.1000    0.0000 O   0  0  0  0  0  0  0  0  0  0  0  0
   14.5492    1.4000    0.0000 C   0  0  0  0  0  0  0  0  0  0  0  0
   15.7617    2.1000    0.0000 C   0  0  0  0  0  0  0  0  0  0  0  0
   16.9741    1.4000    0.0000 C   0  0  0  0  0  0  0  0  0  0  0  0
   18.1865    2.1000    0.0000 C   0  0  0  0  0  0  0  0  0  0  0  0
   19.3990    1.4000    0.0000 C   0  0  0  0  0  0  0  0  0  0  0  0
   12.1244    0.0000    0.0000 O   0  0  0  0  0  0  0  0  0  0  0  0
  1  2  2  0  0  0  0
  2  3  1  0  0  0  0
  3  4  2  0  0  0  0
  4  5  1  0  0  0  0
  5  6  2  0  0  0  0
  6  1  1  0  0  0  0
  3  7  1  0  0  0  0
  1  8  1  0  0  0  0
  7  9  1  0  0  0  0
  9 10  1  0  0  0  0
  9 11  2  0  0  0  0
 10 12  1  0  0  0  0
 12 13  1  0  0  0  0
 13 14  1  0  0  0  0
 14 15  1  0  0  0  0
 15 16  1  0  0  0  0
 16 17  1  0  0  0  0
 17 18  1  0  0  0  0
 18 19  1  0  0  0  0
 19 20  1  0  0  0  0
 20 21  1  0  0  0  0
 15 22  2  0  0  0  0
M  END
> <Molecule Name>
826

> <CDD Number>
CDD-15756

> <Human_sEH_IC50_uM>
100.0

> <Mouse_sEH_IC50_uM>
100.0

$$$$

SketchEl molfile

 22 22  0  0  0  0  0  0  0  0999 V2000
    1.2124    2.1000    0.0000 C   0  0  0  0  0  0  0  0  0  0  0  0
    2.4249    1.4000    0.0000 C   0  0  0  0  0  0  0  0  0  0  0  0
    3.6373    2.1000    0.0000 C   0  0  0  0  0  0  0  0  0  0  0  0
    3.6373    3.5000    0.0000 C   0  0  0  0  0  0  0  0  0  0  0  0
    2.4249    4.2000    0.0000 C   0  0  0  0  0  0  0  0  0  0  0  0
    1.2124    3.5000    0.0000 C   0  0  0  0  0  0  0  0  0  0  0  0
    4.8497    1.4000    0.0000 N   0  0  0  0  0  0  0  0  0  0  0  0
    0.0000    1.4000    0.0000 Cl  0  0  0  0  0  0  0  0  0  0  0  0
    6.0622    2.1000    0.0000 C   0  0  0  0  0  0  0  0  0  0  0  0
    7.2746    1.4000    0.0000 O   0  0  0  0  0  0  0  0  0  0  0  0
    6.0622    3.5000    0.0000 O   0  0  0  0  0  0  0  0  0  0  0  0
    8.4870    2.1000    0.0000 C   0  0  0  0  0  0  0  0  0  0  0  0
    9.6995    1.4000    0.0000 C   0  0  0  0  0  0  0  0  0  0  0  0
   10.9119    2.1000    0.0000 C   0  0  0  0  0  0  0  0  0  0  0  0
   12.1244    1.4000    0.0000 C   0  0  0  0  0  0  0  0  0  0  0  0
   13.3368    2.1000    0.0000 O   0  0  0  0  0  0  0  0  0  0  0  0
   12.1244    0.0000    0.0000 O   0  0  0  0  0  0  0  0  0  0  0  0
   14.5492    1.4000    0.0000 C   0  0  0  0  0  0  0  0  0  0  0  0
   15.7617    2.1000    0.0000 C   0  0  0  0  0  0  0  0  0  0  0  0
   16.9741    1.4000    0.0000 C   0  0  0  0  0  0  0  0  0  0  0  0
   18.1865    2.1000    0.0000 C   0  0  0  0  0  0  0  0  0  0  0  0
   19.3990    1.4000    0.0000 C   0  0  0  0  0  0  0  0  0  0  0  0
  1  2  2  0  0  0  0
  2  3  1  0  0  0  0
  3  4  2  0  0  0  0
  4  5  1  0  0  0  0
  5  6  2  0  0  0  0
  6  1  1  0  0  0  0
  3  7  1  0  0  0  0
  1  8  1  0  0  0  0
  7  9  1  0  0  0  0
  9 10  1  0  0  0  0
  9 11  2  0  0  0  0
 10 12  1  0  0  0  0
 12 13  1  0  0  0  0
 13 14  1  0  0  0  0
 14 15  1  0  0  0  0
 15 16  1  0  0  0  0
 15 17  2  0  0  0  0
 16 18  1  0  0  0  0
 18 19  1  0  0  0  0
 19 20  1  0  0  0  0
 20 21  1  0  0  0  0
 21 22  1  0  0  0  0
M  END
> <Molecule Name>
825

> <CDD Number>
CDD-15754

> <Human_sEH_IC50_uM>
25.0

> <Mouse_sEH_IC50_uM>
17.4

$$$$

SketchEl molfile

 20 22  0  0  0  0  0  0  0  0999 V2000
    0.7000    1.9229    0.0000 C   0  0  0  0  0  0  0  0  0  0  0  0
    0.0000    0.7104    0.0000 C   0  0  0  0  0  0  0  0  0  0  0  0
    1.3461    1.0952    0.0000 C   0  0  0  0  0  0  0  0  0  0  0  0
    2.7004    0.7104    0.0000 C   0  0  0  0  0  0  0  0  0  0  0  0
    3.4006    1.9229    0.0000 C   0  0  0  0  0  0  0  0  0  0  0  0
    2.0543    1.5383    0.0000 C   0  0  0  0  0  0  0  0  0  0  0  0
    1.3461    2.4952    0.0000 C   0  0  0  0  0  0  0  0  0  0  0  0
    0.7000    3.3229    0.0000 C   0  0  0  0  0  0  0  0  0  0  0  0
    2.0461    3.7076    0.0000 C   0  0  0  0  0  0  0  0  0  0  0  0
    3.4006    3.3229    0.0000 C   0  0  0  0  0  0  0  0  0  0  0  0
    4.6130    1.2229    0.0000 N   0  0  0  0  0  0  0  0  0  0  0  0
    5.6030    1.8235    0.0000 C   0  0  0  0  0  0  0  0  0  0  0  0
    6.8154    1.1235    0.0000 N   0  0  0  0  0  0  0  0  0  0  0  0
    5.6030    3.2235    0.0000 O   0  0  0  0  0  0  0  0  0  0  0  0
    7.8053    1.7242    0.0000 C   0  0  0  0  0  0  0  0  0  0  0  0
    9.0178    1.0242    0.0000 C   0  0  0  0  0  0  0  0  0  0  0  0
    9.9048    1.5363    0.0000 C   0  0  0  0  0  0  0  0  0  0  0  0
   10.7918    1.0242    0.0000 C   0  0  0  0  0  0  0  0  0  0  0  0
   11.6788    1.5363    0.0000 O   0  0  0  0  0  0  0  0  0  0  0  0
   10.7918    0.0000    0.0000 O   0  0  0  0  0  0  0  0  0  0  0  0
  1  2  1  0  0  0  0
  2  3  1  0  0  0  0
  3  4  1  0  0  0  0
  4  5  1  0  0  0  0
  5  6  1  0  0  0  0
  6  1  1  0  0  0  0
  3  7  1  0  0  0  0
  1  8  1  0  0  0  0
  7  9  1  0  0  0  0
  8  9  1  0  0  0  0
  5 10  1  0  0  0  0
 10  9  1  0  0  0  0
  5 11  1  0  0  0  0
 11 12  1  0  0  0  0
 12 13  1  0  0  0  0
 12 14  2  0  0  0  0
 13 15  1  0  0  0  0
 15 16  1  0  0  0  0
 16 17  1  0  0  0  0
 17 18  1  0  0  0  0
 18 19  1  0  0  0  0
 18 20  2  0  0  0  0
M  END
> <Molecule Name>
822

> <CDD Number>
CDD-15753

> <Human_sEH_IC50_uM>
37.0

> <Mouse_sEH_IC50_uM>
22.0

$$$$

SketchEl molfile

 30 32  0  0  0  0  0  0  0  0999 V2000
    0.7000    1.9229    0.0000 C   0  0  0  0  0  0  0  0  0  0  0  0
    0.0000    0.7104    0.0000 C   0  0  0  0  0  0  0  0  0  0  0  0
    1.3461    1.0952    0.0000 C   0  0  0  0  0  0  0  0  0  0  0  0
    2.7004    0.7104    0.0000 C   0  0  0  0  0  0  0  0  0  0  0  0
    3.4006    1.9229    0.0000 C   0  0  0  0  0  0  0  0  0  0  0  0
    2.0543    1.5383    0.0000 C   0  0  0  0  0  0  0  0  0  0  0  0
    1.3461    2.4952    0.0000 C   0  0  0  0  0  0  0  0  0  0  0  0
    0.7000    3.3229    0.0000 C   0  0  0  0  0  0  0  0  0  0  0  0
    2.0461    3.7076    0.0000 C   0  0  0  0  0  0  0  0  0  0  0  0
    3.4006    3.3229    0.0000 C   0  0  0  0  0  0  0  0  0  0  0  0
    4.6130    1.2229    0.0000 N   0  0  0  0  0  0  0  0  0  0  0  0
    5.6030    1.8235    0.0000 C   0  0  0  0  0  0  0  0  0  0  0  0
    6.8154    1.1235    0.0000 N   0  0  0  0  0  0  0  0  0  0  0  0
    5.6030    3.2235    0.0000 O   0  0  0  0  0  0  0  0  0  0  0  0
    7.8053    1.7242    0.0000 C   0  0  0  0  0  0  0  0  0  0  0  0
    9.0178    1.0242    0.0000 C   0  0  0  0  0  0  0  0  0  0  0  0
    9.9048    1.5363    0.0000 C   0  0  0  0  0  0  0  0  0  0  0  0
   10.7918    1.0242    0.0000 C   0  0  0  0  0  0  0  0  0  0  0  0
   11.6788    1.5363    0.0000 O   0  0  0  0  0  0  0  0  0  0  0  0
   12.5658    1.0242    0.0000 C   0  0  0  0  0  0  0  0  0  0  0  0
   13.4528    1.5363    0.0000 C   0  0  0  0  0  0  0  0  0  0  0  0
   14.3398    1.0242    0.0000 C   0  0  0  0  0  0  0  0  0  0  0  0
   15.2268    1.5363    0.0000 C   0  0  0  0  0  0  0  0  0  0  0  0
   16.1138    1.0242    0.0000 C   0  0  0  0  0  0  0  0  0  0  0  0
   17.0008    1.5363    0.0000 C   0  0  0  0  0  0  0  0  0  0  0  0
   17.8878    1.0242    0.0000 O   0  0  0  0  0  0  0  0  0  0  0  0
   10.7918    0.0000    0.0000 O   0  0  0  0  0  0  0  0  0  0  0  0
   17.0008    2.5605    0.0000 O   0  0  0  0  0  0  0  0  0  0  0  0
   18.7748    1.5363    0.0000 C   0  0  0  0  0  0  0  0  0  0  0  0
   19.6618    1.0242    0.0000 C   0  0  0  0  0  0  0  0  0  0  0  0
  1  2  1  0  0  0  0
  2  3  1  0  0  0  0
  3  4  1  0  0  0  0
  4  5  1  0  0  0  0
  5  6  1  0  0  0  0
  6  1  1  0  0  0  0
  3  7  1  0  0  0  0
  1  8  1  0  0  0  0
  7  9  1  0  0  0  0
  8  9  1  0  0  0  0
  5 10  1  0  0  0  0
 10  9  1  0  0  0  0
  5 11  1  0  0  0  0
 11 12  1  0  0  0  0
 12 13  1  0  0  0  0
 12 14  2  0  0  0  0
 13 15  1  0  0  0  0
 15 16  1  0  0  0  0
 16 17  1  0  0  0  0
 17 18  1  0  0  0  0
 18 19  1  0  0  0  0
 19 20  1  0  0  0  0
 20 21  1  0  0  0  0
 21 22  1  0  0  0  0
 22 23  1  0  0  0  0
 23 24  1  0  0  0  0
 24 25  1  0  0  0  0
 25 26  1  0  0  0  0
 18 27  2  0  0  0  0
 25 28  2  0  0  0  0
 26 29  1  0  0  0  0
 29 30  1  0  0  0  0
M  END
> <Molecule Name>
821

> <CDD Number>
CDD-15752

> <Human_sEH_IC50_uM>
2.2

> <Mouse_sEH_IC50_uM>
0.44

$$$$

SketchEl molfile

 35 38  0  0  0  0  0  0  0  0999 V2000
    0.9568    2.6284    0.0000 C   0  0  0  0  0  0  0  0  0  0  0  0
    0.0000    0.9711    0.0000 C   0  0  0  0  0  0  0  0  0  0  0  0
    1.8400    1.4970    0.0000 C   0  0  0  0  0  0  0  0  0  0  0  0
    3.6912    0.9711    0.0000 C   0  0  0  0  0  0  0  0  0  0  0  0
    4.6482    2.6284    0.0000 C   0  0  0  0  0  0  0  0  0  0  0  0
    2.8081    2.1027    0.0000 C   0  0  0  0  0  0  0  0  0  0  0  0
    1.8400    3.4106    0.0000 C   0  0  0  0  0  0  0  0  0  0  0  0
    0.9568    4.5420    0.0000 C   0  0  0  0  0  0  0  0  0  0  0  0
    2.7968    5.0679    0.0000 C   0  0  0  0  0  0  0  0  0  0  0  0
    4.6482    4.5420    0.0000 C   0  0  0  0  0  0  0  0  0  0  0  0
    6.3055    1.6715    0.0000 N   0  0  0  0  0  0  0  0  0  0  0  0
    7.6587    2.4926    0.0000 C   0  0  0  0  0  0  0  0  0  0  0  0
    9.3159    1.5358    0.0000 N   0  0  0  0  0  0  0  0  0  0  0  0
    7.6587    4.4063    0.0000 O   0  0  0  0  0  0  0  0  0  0  0  0
   10.6691    2.3568    0.0000 C   0  0  0  0  0  0  0  0  0  0  0  0
   12.3264    1.4000    0.0000 C   0  0  0  0  0  0  0  0  0  0  0  0
   13.5388    2.1000    0.0000 C   0  0  0  0  0  0  0  0  0  0  0  0
   14.7512    1.4000    0.0000 C   0  0  0  0  0  0  0  0  0  0  0  0
   15.9637    2.1000    0.0000 C   0  0  0  0  0  0  0  0  0  0  0  0
   17.1761    1.4000    0.0000 C   0  0  0  0  0  0  0  0  0  0  0  0
   18.3885    2.1000    0.0000 C   0  0  0  0  0  0  0  0  0  0  0  0
   19.6010    1.4000    0.0000 C   0  0  0  0  0  0  0  0  0  0  0  0
   20.8134    2.1000    0.0000 C   0  0  0  0  0  0  0  0  0  0  0  0
   22.0258    1.4000    0.0000 C   0  0  0  0  0  0  0  0  0  0  0  0
   23.2383    2.1000    0.0000 C   0  0  0  0  0  0  0  0  0  0  0  0
   24.4507    1.4000    0.0000 C   0  0  0  0  0  0  0  0  0  0  0  0
   25.6631    2.1000    0.0000 O   0  0  0  0  0  0  0  0  0  0  0  0
   26.6531    1.4993    0.0000 C   0  0  0  0  0  0  0  0  0  0  0  0
   27.8655    2.1993    0.0000 C   0  0  0  0  0  0  0  0  0  0  0  0
   24.4507    0.0000    0.0000 O   0  0  0  0  0  0  0  0  0  0  0  0
   29.0780    1.4993    0.0000 C   0  0  0  0  0  0  0  0  0  0  0  0
   30.2904    2.1993    0.0000 C   0  0  0  0  0  0  0  0  0  0  0  0
   30.2904    3.5993    0.0000 C   0  0  0  0  0  0  0  0  0  0  0  0
   29.0780    4.2993    0.0000 C   0  0  0  0  0  0  0  0  0  0  0  0
   27.8655    3.5993    0.0000 C   0  0  0  0  0  0  0  0  0  0  0  0
  1  2  1  0  0  0  0
  2  3  1  0  0  0  0
  3  4  1  0  0  0  0
  4  5  1  0  0  0  0
  5  6  1  0  0  0  0
  6  1  1  0  0  0  0
  3  7  1  0  0  0  0
  1  8  1  0  0  0  0
  7  9  1  0  0  0  0
  8  9  1  0  0  0  0
  5 10  1  0  0  0  0
 10  9  1  0  0  0  0
  5 11  1  0  0  0  0
 11 12  1  0  0  0  0
 12 13  1  0  0  0  0
 12 14  2  0  0  0  0
 13 15  1  0  0  0  0
 15 16  1  0  0  0  0
 16 17  1  0  0  0  0
 17 18  1  0  0  0  0
 18 19  1  0  0  0  0
 19 20  1  0  0  0  0
 20 21  1  0  0  0  0
 21 22  1  0  0  0  0
 22 23  1  0  0  0  0
 23 24  1  0  0  0  0
 24 25  1  0  0  0  0
 25 26  1  0  0  0  0
 26 27  1  0  0  0  0
 27 28  1  0  0  0  0
 28 29  1  0  0  0  0
 26 30  2  0  0  0  0
 29 31  2  0  0  0  0
 31 32  1  0  0  0  0
 32 33  2  0  0  0  0
 33 34  1  0  0  0  0
 34 35  2  0  0  0  0
 35 29  1  0  0  0  0
M  END
> <Molecule Name>
804

> <CDD Number>
CDD-15751

> <Human_sEH_IC50_uM>
0.13

> <Mouse_sEH_IC50_uM>
0.07

$$$$

SketchEl molfile

 32 34  0  0  0  0  0  0  0  0999 V2000
    0.8463    2.3249    0.0000 C   0  0  0  0  0  0  0  0  0  0  0  0
    0.0000    0.8590    0.0000 C   0  0  0  0  0  0  0  0  0  0  0  0
    1.6275    1.3241    0.0000 C   0  0  0  0  0  0  0  0  0  0  0  0
    3.2649    0.8590    0.0000 C   0  0  0  0  0  0  0  0  0  0  0  0
    4.1115    2.3249    0.0000 C   0  0  0  0  0  0  0  0  0  0  0  0
    2.4838    1.8599    0.0000 C   0  0  0  0  0  0  0  0  0  0  0  0
    1.6275    3.0168    0.0000 C   0  0  0  0  0  0  0  0  0  0  0  0
    0.8463    4.0175    0.0000 C   0  0  0  0  0  0  0  0  0  0  0  0
    2.4739    4.4827    0.0000 C   0  0  0  0  0  0  0  0  0  0  0  0
    4.1115    4.0175    0.0000 C   0  0  0  0  0  0  0  0  0  0  0  0
    5.5774    1.4785    0.0000 N   0  0  0  0  0  0  0  0  0  0  0  0
    6.7742    2.2048    0.0000 C   0  0  0  0  0  0  0  0  0  0  0  0
    8.2401    1.3584    0.0000 N   0  0  0  0  0  0  0  0  0  0  0  0
    6.7742    3.8974    0.0000 O   0  0  0  0  0  0  0  0  0  0  0  0
    9.4370    2.0847    0.0000 C   0  0  0  0  0  0  0  0  0  0  0  0
   10.9029    1.2383    0.0000 C   0  0  0  0  0  0  0  0  0  0  0  0
   11.9754    1.8575    0.0000 C   0  0  0  0  0  0  0  0  0  0  0  0
   13.0478    1.2383    0.0000 C   0  0  0  0  0  0  0  0  0  0  0  0
   14.1202    1.8575    0.0000 C   0  0  0  0  0  0  0  0  0  0  0  0
   15.1926    1.2383    0.0000 C   0  0  0  0  0  0  0  0  0  0  0  0
   16.2651    1.8575    0.0000 C   0  0  0  0  0  0  0  0  0  0  0  0
   17.3375    1.2383    0.0000 C   0  0  0  0  0  0  0  0  0  0  0  0
   18.4099    1.8575    0.0000 C   0  0  0  0  0  0  0  0  0  0  0  0
   19.4823    1.2383    0.0000 C   0  0  0  0  0  0  0  0  0  0  0  0
   20.5548    1.8575    0.0000 C   0  0  0  0  0  0  0  0  0  0  0  0
   21.6272    1.2383    0.0000 C   0  0  0  0  0  0  0  0  0  0  0  0
   22.6996    1.8575    0.0000 O   0  0  0  0  0  0  0  0  0  0  0  0
   23.5753    1.3262    0.0000 C   0  0  0  0  0  0  0  0  0  0  0  0
   24.6477    1.9454    0.0000 C   0  0  0  0  0  0  0  0  0  0  0  0
   21.6272    0.0000    0.0000 O   0  0  0  0  0  0  0  0  0  0  0  0
   25.7201    1.3262    0.0000 C   0  0  0  0  0  0  0  0  0  0  0  0
   24.6477    3.1837    0.0000 C   0  0  0  0  0  0  0  0  0  0  0  0
  1  2  1  0  0  0  0
  2  3  1  0  0  0  0
  3  4  1  0  0  0  0
  4  5  1  0  0  0  0
  5  6  1  0  0  0  0
  6  1  1  0  0  0  0
  3  7  1  0  0  0  0
  1  8  1  0  0  0  0
  7  9  1  0  0  0  0
  8  9  1  0  0  0  0
  5 10  1  0  0  0  0
 10  9  1  0  0  0  0
  5 11  1  0  0  0  0
 11 12  1  0  0  0  0
 12 13  1  0  0  0  0
 12 14  2  0  0  0  0
 13 15  1  0  0  0  0
 15 16  1  0  0  0  0
 16 17  1  0  0  0  0
 17 18  1  0  0  0  0
 18 19  1  0  0  0  0
 19 20  1  0  0  0  0
 20 21  1  0  0  0  0
 21 22  1  0  0  0  0
 22 23  1  0  0  0  0
 23 24  1  0  0  0  0
 24 25  1  0  0  0  0
 25 26  1  0  0  0  0
 26 27  1  0  0  0  0
 27 28  1  0  0  0  0
 28 29  1  0  0  0  0
 26 30  2  0  0  0  0
 29 31  1  0  0  0  0
 29 32  1  0  0  0  0
M  END
> <Molecule Name>
803

> <CDD Number>
CDD-15750

> <Human_sEH_IC50_uM>
0.1

> <Mouse_sEH_IC50_uM>
0.05

$$$$

SketchEl molfile

 32 34  0  0  0  0  0  0  0  0999 V2000
    0.8463    2.3249    0.0000 C   0  0  0  0  0  0  0  0  0  0  0  0
    0.0000    0.8590    0.0000 C   0  0  0  0  0  0  0  0  0  0  0  0
    1.6275    1.3241    0.0000 C   0  0  0  0  0  0  0  0  0  0  0  0
    3.2649    0.8590    0.0000 C   0  0  0  0  0  0  0  0  0  0  0  0
    4.1115    2.3249    0.0000 C   0  0  0  0  0  0  0  0  0  0  0  0
    2.4838    1.8599    0.0000 C   0  0  0  0  0  0  0  0  0  0  0  0
    1.6275    3.0168    0.0000 C   0  0  0  0  0  0  0  0  0  0  0  0
    0.8463    4.0175    0.0000 C   0  0  0  0  0  0  0  0  0  0  0  0
    2.4739    4.4827    0.0000 C   0  0  0  0  0  0  0  0  0  0  0  0
    4.1115    4.0175    0.0000 C   0  0  0  0  0  0  0  0  0  0  0  0
    5.5774    1.4785    0.0000 N   0  0  0  0  0  0  0  0  0  0  0  0
    6.7743    2.2048    0.0000 C   0  0  0  0  0  0  0  0  0  0  0  0
    8.2401    1.3584    0.0000 N   0  0  0  0  0  0  0  0  0  0  0  0
    6.7743    3.8974    0.0000 O   0  0  0  0  0  0  0  0  0  0  0  0
    9.4370    2.0847    0.0000 C   0  0  0  0  0  0  0  0  0  0  0  0
   10.9029    1.2383    0.0000 C   0  0  0  0  0  0  0  0  0  0  0  0
   11.9754    1.8575    0.0000 C   0  0  0  0  0  0  0  0  0  0  0  0
   13.0478    1.2383    0.0000 C   0  0  0  0  0  0  0  0  0  0  0  0
   14.1202    1.8575    0.0000 C   0  0  0  0  0  0  0  0  0  0  0  0
   15.1927    1.2383    0.0000 C   0  0  0  0  0  0  0  0  0  0  0  0
   16.2651    1.8575    0.0000 C   0  0  0  0  0  0  0  0  0  0  0  0
   17.3375    1.2383    0.0000 C   0  0  0  0  0  0  0  0  0  0  0  0
   18.4099    1.8575    0.0000 C   0  0  0  0  0  0  0  0  0  0  0  0
   19.4824    1.2383    0.0000 C   0  0  0  0  0  0  0  0  0  0  0  0
   20.5548    1.8575    0.0000 C   0  0  0  0  0  0  0  0  0  0  0  0
   21.6272    1.2383    0.0000 C   0  0  0  0  0  0  0  0  0  0  0  0
   22.6996    1.8575    0.0000 O   0  0  0  0  0  0  0  0  0  0  0  0
   23.5753    1.3262    0.0000 C   0  0  0  0  0  0  0  0  0  0  0  0
   23.5753    0.0879    0.0000 C   0  0  0  0  0  0  0  0  0  0  0  0
   24.6477    1.9454    0.0000 C   0  0  0  0  0  0  0  0  0  0  0  0
   21.6272    0.0000    0.0000 O   0  0  0  0  0  0  0  0  0  0  0  0
   25.7201    1.3262    0.0000 C   0  0  0  0  0  0  0  0  0  0  0  0
  1  2  1  0  0  0  0
  2  3  1  0  0  0  0
  3  4  1  0  0  0  0
  4  5  1  0  0  0  0
  5  6  1  0  0  0  0
  6  1  1  0  0  0  0
  3  7  1  0  0  0  0
  1  8  1  0  0  0  0
  7  9  1  0  0  0  0
  8  9  1  0  0  0  0
  5 10  1  0  0  0  0
 10  9  1  0  0  0  0
  5 11  1  0  0  0  0
 11 12  1  0  0  0  0
 12 13  1  0  0  0  0
 12 14  2  0  0  0  0
 13 15  1  0  0  0  0
 15 16  1  0  0  0  0
 16 17  1  0  0  0  0
 17 18  1  0  0  0  0
 18 19  1  0  0  0  0
 19 20  1  0  0  0  0
 20 21  1  0  0  0  0
 21 22  1  0  0  0  0
 22 23  1  0  0  0  0
 23 24  1  0  0  0  0
 24 25  1  0  0  0  0
 25 26  1  0  0  0  0
 26 27  1  0  0  0  0
 27 28  1  0  0  0  0
 28 29  1  0  0  0  0
 28 30  1  0  0  0  0
 26 31  2  0  0  0  0
 30 32  1  0  0  0  0
M  END
> <Molecule Name>
802

> <CDD Number>
CDD-15749

> <Human_sEH_IC50_uM>
0.1

> <Mouse_sEH_IC50_uM>
0.05

$$$$

SketchEl molfile

 32 34  0  0  0  0  0  0  0  0999 V2000
    0.8463    2.3249    0.0000 C   0  0  0  0  0  0  0  0  0  0  0  0
    0.0000    0.8590    0.0000 C   0  0  0  0  0  0  0  0  0  0  0  0
    1.6275    1.3241    0.0000 C   0  0  0  0  0  0  0  0  0  0  0  0
    3.2649    0.8590    0.0000 C   0  0  0  0  0  0  0  0  0  0  0  0
    4.1115    2.3249    0.0000 C   0  0  0  0  0  0  0  0  0  0  0  0
    2.4838    1.8599    0.0000 C   0  0  0  0  0  0  0  0  0  0  0  0
    1.6275    3.0168    0.0000 C   0  0  0  0  0  0  0  0  0  0  0  0
    0.8463    4.0175    0.0000 C   0  0  0  0  0  0  0  0  0  0  0  0
    2.4739    4.4827    0.0000 C   0  0  0  0  0  0  0  0  0  0  0  0
    4.1115    4.0175    0.0000 C   0  0  0  0  0  0  0  0  0  0  0  0
    5.5774    1.4785    0.0000 N   0  0  0  0  0  0  0  0  0  0  0  0
    6.7743    2.2048    0.0000 C   0  0  0  0  0  0  0  0  0  0  0  0
    8.2401    1.3584    0.0000 N   0  0  0  0  0  0  0  0  0  0  0  0
    6.7743    3.8974    0.0000 O   0  0  0  0  0  0  0  0  0  0  0  0
    9.4370    2.0847    0.0000 C   0  0  0  0  0  0  0  0  0  0  0  0
   10.9029    1.2383    0.0000 C   0  0  0  0  0  0  0  0  0  0  0  0
   11.9754    1.8575    0.0000 C   0  0  0  0  0  0  0  0  0  0  0  0
   13.0478    1.2383    0.0000 C   0  0  0  0  0  0  0  0  0  0  0  0
   14.1202    1.8575    0.0000 C   0  0  0  0  0  0  0  0  0  0  0  0
   15.1927    1.2383    0.0000 C   0  0  0  0  0  0  0  0  0  0  0  0
   16.2651    1.8575    0.0000 C   0  0  0  0  0  0  0  0  0  0  0  0
   17.3375    1.2383    0.0000 C   0  0  0  0  0  0  0  0  0  0  0  0
   18.4099    1.8575    0.0000 C   0  0  0  0  0  0  0  0  0  0  0  0
   19.4824    1.2383    0.0000 C   0  0  0  0  0  0  0  0  0  0  0  0
   20.5548    1.8575    0.0000 C   0  0  0  0  0  0  0  0  0  0  0  0
   21.6272    1.2383    0.0000 C   0  0  0  0  0  0  0  0  0  0  0  0
   22.6996    1.8575    0.0000 O   0  0  0  0  0  0  0  0  0  0  0  0
   23.5753    1.3262    0.0000 C   0  0  0  0  0  0  0  0  0  0  0  0
   23.5753    0.0879    0.0000 C   0  0  0  0  0  0  0  0  0  0  0  0
   24.6477    1.9454    0.0000 C   0  0  0  0  0  0  0  0  0  0  0  0
   21.6272    0.0000    0.0000 O   0  0  0  0  0  0  0  0  0  0  0  0
   24.6477    0.7070    0.0000 C   0  0  0  0  0  0  0  0  0  0  0  0
  1  2  1  0  0  0  0
  2  3  1  0  0  0  0
  3  4  1  0  0  0  0
  4  5  1  0  0  0  0
  5  6  1  0  0  0  0
  6  1  1  0  0  0  0
  3  7  1  0  0  0  0
  1  8  1  0  0  0  0
  7  9  1  0  0  0  0
  8  9  1  0  0  0  0
  5 10  1  0  0  0  0
 10  9  1  0  0  0  0
  5 11  1  0  0  0  0
 11 12  1  0  0  0  0
 12 13  1  0  0  0  0
 12 14  2  0  0  0  0
 13 15  1  0  0  0  0
 15 16  1  0  0  0  0
 16 17  1  0  0  0  0
 17 18  1  0  0  0  0
 18 19  1  0  0  0  0
 19 20  1  0  0  0  0
 20 21  1  0  0  0  0
 21 22  1  0  0  0  0
 22 23  1  0  0  0  0
 23 24  1  0  0  0  0
 24 25  1  0  0  0  0
 25 26  1  0  0  0  0
 26 27  1  0  0  0  0
 27 28  1  0  0  0  0
 28 29  1  0  0  0  0
 28 30  1  0  0  0  0
 26 31  2  0  0  0  0
 28 32  1  0  0  0  0
M  END
> <Molecule Name>
801

> <CDD Number>
CDD-15748

> <Human_sEH_IC50_uM>
0.1

> <Mouse_sEH_IC50_uM>
0.05

$$$$

SketchEl molfile

 32 34  0  0  0  0  0  0  0  0999 V2000
    0.8463    2.3249    0.0000 C   0  0  0  0  0  0  0  0  0  0  0  0
    0.0000    0.8590    0.0000 C   0  0  0  0  0  0  0  0  0  0  0  0
    1.6275    1.3241    0.0000 C   0  0  0  0  0  0  0  0  0  0  0  0
    3.2649    0.8590    0.0000 C   0  0  0  0  0  0  0  0  0  0  0  0
    4.1115    2.3249    0.0000 C   0  0  0  0  0  0  0  0  0  0  0  0
    2.4838    1.8599    0.0000 C   0  0  0  0  0  0  0  0  0  0  0  0
    1.6275    3.0168    0.0000 C   0  0  0  0  0  0  0  0  0  0  0  0
    0.8463    4.0175    0.0000 C   0  0  0  0  0  0  0  0  0  0  0  0
    2.4739    4.4827    0.0000 C   0  0  0  0  0  0  0  0  0  0  0  0
    4.1115    4.0175    0.0000 C   0  0  0  0  0  0  0  0  0  0  0  0
    5.5774    1.4785    0.0000 N   0  0  0  0  0  0  0  0  0  0  0  0
    6.7743    2.2048    0.0000 C   0  0  0  0  0  0  0  0  0  0  0  0
    8.2401    1.3584    0.0000 N   0  0  0  0  0  0  0  0  0  0  0  0
    6.7743    3.8974    0.0000 O   0  0  0  0  0  0  0  0  0  0  0  0
    9.4370    2.0847    0.0000 C   0  0  0  0  0  0  0  0  0  0  0  0
   10.9029    1.2383    0.0000 C   0  0  0  0  0  0  0  0  0  0  0  0
   11.9754    1.8575    0.0000 C   0  0  0  0  0  0  0  0  0  0  0  0
   13.0478    1.2383    0.0000 C   0  0  0  0  0  0  0  0  0  0  0  0
   14.1202    1.8575    0.0000 C   0  0  0  0  0  0  0  0  0  0  0  0
   15.1927    1.2383    0.0000 C   0  0  0  0  0  0  0  0  0  0  0  0
   16.2651    1.8575    0.0000 C   0  0  0  0  0  0  0  0  0  0  0  0
   17.3375    1.2383    0.0000 C   0  0  0  0  0  0  0  0  0  0  0  0
   18.4099    1.8575    0.0000 C   0  0  0  0  0  0  0  0  0  0  0  0
   19.4824    1.2383    0.0000 C   0  0  0  0  0  0  0  0  0  0  0  0
   20.5548    1.8575    0.0000 C   0  0  0  0  0  0  0  0  0  0  0  0
   21.6272    1.2383    0.0000 C   0  0  0  0  0  0  0  0  0  0  0  0
   22.6996    1.8575    0.0000 O   0  0  0  0  0  0  0  0  0  0  0  0
   23.5753    1.3262    0.0000 C   0  0  0  0  0  0  0  0  0  0  0  0
   24.6477    1.9454    0.0000 C   0  0  0  0  0  0  0  0  0  0  0  0
   21.6272    0.0000    0.0000 O   0  0  0  0  0  0  0  0  0  0  0  0
   25.7201    1.3262    0.0000 C   0  0  0  0  0  0  0  0  0  0  0  0
   26.7925    1.9454    0.0000 C   0  0  0  0  0  0  0  0  0  0  0  0
  1  2  1  0  0  0  0
  2  3  1  0  0  0  0
  3  4  1  0  0  0  0
  4  5  1  0  0  0  0
  5  6  1  0  0  0  0
  6  1  1  0  0  0  0
  3  7  1  0  0  0  0
  1  8  1  0  0  0  0
  7  9  1  0  0  0  0
  8  9  1  0  0  0  0
  5 10  1  0  0  0  0
 10  9  1  0  0  0  0
  5 11  1  0  0  0  0
 11 12  1  0  0  0  0
 12 13  1  0  0  0  0
 12 14  2  0  0  0  0
 13 15  1  0  0  0  0
 15 16  1  0  0  0  0
 16 17  1  0  0  0  0
 17 18  1  0  0  0  0
 18 19  1  0  0  0  0
 19 20  1  0  0  0  0
 20 21  1  0  0  0  0
 21 22  1  0  0  0  0
 22 23  1  0  0  0  0
 23 24  1  0  0  0  0
 24 25  1  0  0  0  0
 25 26  1  0  0  0  0
 26 27  1  0  0  0  0
 27 28  1  0  0  0  0
 28 29  1  0  0  0  0
 26 30  2  0  0  0  0
 29 31  1  0  0  0  0
 31 32  1  0  0  0  0
M  END
> <Molecule Name>
800

> <CDD Number>
CDD-15747

> <Human_sEH_IC50_uM>
0.1

> <Mouse_sEH_IC50_uM>
0.05

$$$$

SketchEl molfile

 39 42  0  0  0  0  0  0  0  0999 V2000
    0.9568    3.9014    0.0000 C   0  0  0  0  0  0  0  0  0  0  0  0
    0.0000    2.2441    0.0000 C   0  0  0  0  0  0  0  0  0  0  0  0
    1.8400    2.7700    0.0000 C   0  0  0  0  0  0  0  0  0  0  0  0
    3.6911    2.2441    0.0000 C   0  0  0  0  0  0  0  0  0  0  0  0
    4.6481    3.9014    0.0000 C   0  0  0  0  0  0  0  0  0  0  0  0
    2.8080    3.3757    0.0000 C   0  0  0  0  0  0  0  0  0  0  0  0
    1.8400    4.6836    0.0000 C   0  0  0  0  0  0  0  0  0  0  0  0
    0.9568    5.8150    0.0000 C   0  0  0  0  0  0  0  0  0  0  0  0
    2.7968    6.3408    0.0000 C   0  0  0  0  0  0  0  0  0  0  0  0
    4.6481    5.8150    0.0000 C   0  0  0  0  0  0  0  0  0  0  0  0
    6.3053    2.9446    0.0000 N   0  0  0  0  0  0  0  0  0  0  0  0
    7.6584    3.7656    0.0000 C   0  0  0  0  0  0  0  0  0  0  0  0
    9.3156    2.8088    0.0000 N   0  0  0  0  0  0  0  0  0  0  0  0
    7.6584    5.6792    0.0000 O   0  0  0  0  0  0  0  0  0  0  0  0
   10.6688    3.6298    0.0000 C   0  0  0  0  0  0  0  0  0  0  0  0
   12.3260    2.6730    0.0000 C   0  0  0  0  0  0  0  0  0  0  0  0
   13.5384    3.3730    0.0000 C   0  0  0  0  0  0  0  0  0  0  0  0
   14.7508    2.6730    0.0000 C   0  0  0  0  0  0  0  0  0  0  0  0
   15.9632    3.3730    0.0000 C   0  0  0  0  0  0  0  0  0  0  0  0
   17.1756    2.6730    0.0000 C   0  0  0  0  0  0  0  0  0  0  0  0
   18.3880    3.3730    0.0000 C   0  0  0  0  0  0  0  0  0  0  0  0
   19.6004    2.6730    0.0000 C   0  0  0  0  0  0  0  0  0  0  0  0
   20.8128    3.3730    0.0000 C   0  0  0  0  0  0  0  0  0  0  0  0
   22.0252    2.6730    0.0000 C   0  0  0  0  0  0  0  0  0  0  0  0
   23.2376    3.3730    0.0000 C   0  0  0  0  0  0  0  0  0  0  0  0
   24.4500    2.6730    0.0000 C   0  0  0  0  0  0  0  0  0  0  0  0
   25.6624    3.3730    0.0000 N   0  0  0  0  0  0  0  0  0  0  0  0
   26.6523    2.7724    0.0000 C   0  0  0  0  0  0  0  0  0  0  0  0
   24.4500    1.2731    0.0000 O   0  0  0  0  0  0  0  0  0  0  0  0
   27.0146    1.4201    0.0000 C   0  0  0  0  0  0  0  0  0  0  0  0
   28.4146    1.4201    0.0000 C   0  0  0  0  0  0  0  0  0  0  0  0
   29.6152    0.7000    0.0000 C   0  0  0  0  0  0  0  0  0  0  0  0
   29.2530    2.0523    0.0000 C   0  0  0  0  0  0  0  0  0  0  0  0
   27.8529    2.0523    0.0000 O   0  0  0  0  0  0  0  0  0  0  0  0
   29.2530    3.4523    0.0000 C   0  0  0  0  0  0  0  0  0  0  0  0
   30.2429    4.4422    0.0000 O   0  0  0  0  0  0  0  0  0  0  0  0
   30.8276    0.0000    0.0000 O   0  0  0  0  0  0  0  0  0  0  0  0
   28.4146    0.0202    0.0000 O   0  0  0  0  0  0  0  0  0  0  0  0
   26.3146    0.2077    0.0000 O   0  0  0  0  0  0  0  0  0  0  0  0
  1  2  1  0  0  0  0
  2  3  1  0  0  0  0
  3  4  1  0  0  0  0
  4  5  1  0  0  0  0
  5  6  1  0  0  0  0
  6  1  1  0  0  0  0
  3  7  1  0  0  0  0
  1  8  1  0  0  0  0
  7  9  1  0  0  0  0
  8  9  1  0  0  0  0
  5 10  1  0  0  0  0
 10  9  1  0  0  0  0
  5 11  1  0  0  0  0
 11 12  1  0  0  0  0
 12 13  1  0  0  0  0
 12 14  2  0  0  0  0
 13 15  1  0  0  0  0
 15 16  1  0  0  0  0
 16 17  1  0  0  0  0
 17 18  1  0  0  0  0
 18 19  1  0  0  0  0
 19 20  1  0  0  0  0
 20 21  1  0  0  0  0
 21 22  1  0  0  0  0
 22 23  1  0  0  0  0
 23 24  1  0  0  0  0
 24 25  1  0  0  0  0
 25 26  1  0  0  0  0
 26 27  1  0  0  0  0
 27 28  1  0  0  0  0
 26 29  2  0  0  0  0
 28 30  1  0  0  0  0
 30 31  1  0  0  0  0
 31 32  1  0  0  0  0
 32 33  1  0  0  0  0
 33 34  1  0  0  0  0
 34 28  1  0  0  0  0
 33 35  1  0  0  0  0
 35 36  1  0  0  0  0
 32 37  1  0  0  0  0
 31 38  1  0  0  0  0
 30 39  1  0  0  0  0
M  END
> <Molecule Name>
799

> <CDD Number>
CDD-15746

> <Human_sEH_IC50_uM>
0.1

> <Mouse_sEH_IC50_uM>
0.05

$$$$

SketchEl molfile

 31 34  0  0  0  0  0  0  0  0999 V2000
    2.7836    3.0265    0.0000 C   0  0  0  0  0  0  0  0  0  0  0  0
    1.3836    3.0265    0.0000 C   0  0  0  0  0  0  0  0  0  0  0  0
    1.0130    1.6760    0.0000 C   0  0  0  0  0  0  0  0  0  0  0  0
    0.0000    0.7000    0.0000 C   0  0  0  0  0  0  0  0  0  0  0  0
    1.3836    0.7000    0.0000 C   0  0  0  0  0  0  0  0  0  0  0  0
    1.7500    2.0466    0.0000 C   0  0  0  0  0  0  0  0  0  0  0  0
    3.9941    2.3265    0.0000 C   0  0  0  0  0  0  0  0  0  0  0  0
    3.6319    0.9760    0.0000 C   0  0  0  0  0  0  0  0  0  0  0  0
    2.5941    0.0000    0.0000 C   0  0  0  0  0  0  0  0  0  0  0  0
    2.2235    0.9760    0.0000 C   0  0  0  0  0  0  0  0  0  0  0  0
    4.8424    0.2760    0.0000 N   0  0  0  0  0  0  0  0  0  0  0  0
    6.0529    0.9760    0.0000 C   0  0  0  0  0  0  0  0  0  0  0  0
    6.0529    2.3760    0.0000 O   0  0  0  0  0  0  0  0  0  0  0  0
    7.2635    0.2760    0.0000 N   0  0  0  0  0  0  0  0  0  0  0  0
    8.4743    0.9760    0.0000 C   0  0  0  0  0  0  0  0  0  0  0  0
    9.6871    0.2767    0.0000 C   0  0  0  0  0  0  0  0  0  0  0  0
   10.8992    0.9774    0.0000 C   0  0  0  0  0  0  0  0  0  0  0  0
   12.1120    0.2781    0.0000 C   0  0  0  0  0  0  0  0  0  0  0  0
   13.3241    0.9788    0.0000 C   0  0  0  0  0  0  0  0  0  0  0  0
   14.5369    0.2795    0.0000 C   0  0  0  0  0  0  0  0  0  0  0  0
   15.7489    0.9801    0.0000 C   0  0  0  0  0  0  0  0  0  0  0  0
   16.9618    0.2808    0.0000 C   0  0  0  0  0  0  0  0  0  0  0  0
   18.1738    0.9815    0.0000 C   0  0  0  0  0  0  0  0  0  0  0  0
   19.3866    0.2822    0.0000 C   0  0  0  0  0  0  0  0  0  0  0  0
   20.5987    0.9829    0.0000 C   0  0  0  0  0  0  0  0  0  0  0  0
   21.8115    0.2836    0.0000 C   0  0  0  0  0  0  0  0  0  0  0  0
   23.0235    0.9843    0.0000 N   0  0  0  0  0  0  0  0  0  0  0  0
   24.3028    0.4156    0.0000 C   0  0  0  0  0  0  0  0  0  0  0  0
   25.2390    1.4565    0.0000 C   0  0  0  0  0  0  0  0  0  0  0  0
   24.5383    2.6686    0.0000 N   0  0  0  0  0  0  0  0  0  0  0  0
   23.1691    2.3767    0.0000 C   0  0  0  0  0  0  0  0  0  0  0  0
  1  2  1  0  0  0  0
  2  3  1  0  0  0  0
  3  4  1  0  0  0  0
  4  5  1  0  0  0  0
  5  6  1  0  0  0  0
  1  6  1  0  0  0  0
  1  7  1  0  0  0  0
  7  8  1  0  0  0  0
  5  9  1  0  0  0  0
  8  9  1  0  0  0  0
  3 10  1  0  0  0  0
  8 10  1  0  0  0  0
  8 11  1  0  0  0  0
 11 12  1  0  0  0  0
 12 13  2  0  0  0  0
 12 14  1  0  0  0  0
 14 15  1  0  0  0  0
 15 16  1  0  0  0  0
 16 17  1  0  0  0  0
 17 18  1  0  0  0  0
 18 19  1  0  0  0  0
 19 20  1  0  0  0  0
 20 21  1  0  0  0  0
 21 22  1  0  0  0  0
 22 23  1  0  0  0  0
 23 24  1  0  0  0  0
 24 25  1  0  0  0  0
 25 26  1  0  0  0  0
 26 27  1  0  0  0  0
 27 28  1  0  0  0  0
 28 29  2  0  0  0  0
 29 30  1  0  0  0  0
 30 31  2  0  0  0  0
 31 27  1  0  0  0  0
M  END
> <Molecule Name>
798

> <CDD Number>
CDD-16258

> <Human_sEH_IC50_uM>
63.0

> <Mouse_sEH_IC50_uM>
2.3

$$$$

SketchEl molfile

 21 22  0  0  0  0  0  0  0  0999 V2000
    0.9900    2.9921    0.0000 C   0  0  0  0  0  0  0  0  0  0  0  0
    0.0000    2.0022    0.0000 C   0  0  0  0  0  0  0  0  0  0  0  0
    1.3998    2.0022    0.0000 C   0  0  0  0  0  0  0  0  0  0  0  0
    2.6161    1.3088    0.0000 C   0  0  0  0  0  0  0  0  0  0  0  0
    3.6062    2.2987    0.0000 C   0  0  0  0  0  0  0  0  0  0  0  0
    2.2063    2.2987    0.0000 C   0  0  0  0  0  0  0  0  0  0  0  0
    4.8186    1.5987    0.0000 N   0  0  0  0  0  0  0  0  0  0  0  0
    5.8086    2.1993    0.0000 C   0  0  0  0  0  0  0  0  0  0  0  0
    7.0210    1.4993    0.0000 N   0  0  0  0  0  0  0  0  0  0  0  0
    5.8086    3.5993    0.0000 O   0  0  0  0  0  0  0  0  0  0  0  0
    8.0110    2.1000    0.0000 C   0  0  0  0  0  0  0  0  0  0  0  0
    9.2234    1.4000    0.0000 C   0  0  0  0  0  0  0  0  0  0  0  0
   10.4358    2.1000    0.0000 C   0  0  0  0  0  0  0  0  0  0  0  0
   10.4358    3.5000    0.0000 C   0  0  0  0  0  0  0  0  0  0  0  0
    9.2234    4.2000    0.0000 C   0  0  0  0  0  0  0  0  0  0  0  0
    8.0110    3.5000    0.0000 C   0  0  0  0  0  0  0  0  0  0  0  0
   11.6483    1.4000    0.0000 C   0  0  0  0  0  0  0  0  0  0  0  0
   12.8607    2.1000    0.0000 O   0  0  0  0  0  0  0  0  0  0  0  0
   11.6483    0.0000    0.0000 O   0  0  0  0  0  0  0  0  0  0  0  0
   14.0731    1.4000    0.0000 C   0  0  0  0  0  0  0  0  0  0  0  0
   15.2856    2.1000    0.0000 C   0  0  0  0  0  0  0  0  0  0  0  0
  1  2  1  0  0  0  0
  2  3  1  0  0  0  0
  3  4  1  0  0  0  0
  4  5  1  0  0  0  0
  5  6  1  0  0  0  0
  6  1  1  0  0  0  0
  5  7  1  0  0  0  0
  7  8  1  0  0  0  0
  8  9  1  0  0  0  0
  8 10  2  0  0  0  0
  9 11  1  0  0  0  0
 11 12  2  0  0  0  0
 12 13  1  0  0  0  0
 13 14  2  0  0  0  0
 14 15  1  0  0  0  0
 15 16  2  0  0  0  0
 16 11  1  0  0  0  0
 13 17  1  0  0  0  0
 17 18  1  0  0  0  0
 17 19  2  0  0  0  0
 18 20  1  0  0  0  0
 20 21  1  0  0  0  0
M  END
> <Molecule Name>
797

> <CDD Number>
CDD-15745

> <Mouse_sEH_IC50_uM>
0.15

$$$$

SketchEl molfile

 24 26  0  0  0  0  0  0  0  0999 V2000
    0.9568    1.6573    0.0000 C   0  0  0  0  0  0  0  0  0  0  0  0
    0.0000    0.0000    0.0000 C   0  0  0  0  0  0  0  0  0  0  0  0
    1.8400    0.5259    0.0000 C   0  0  0  0  0  0  0  0  0  0  0  0
    3.6912    0.0000    0.0000 C   0  0  0  0  0  0  0  0  0  0  0  0
    4.6482    1.6573    0.0000 C   0  0  0  0  0  0  0  0  0  0  0  0
    2.8081    1.1316    0.0000 C   0  0  0  0  0  0  0  0  0  0  0  0
    1.8400    2.4395    0.0000 C   0  0  0  0  0  0  0  0  0  0  0  0
    0.9568    3.5709    0.0000 C   0  0  0  0  0  0  0  0  0  0  0  0
    2.7969    4.0968    0.0000 C   0  0  0  0  0  0  0  0  0  0  0  0
    4.6482    3.5709    0.0000 C   0  0  0  0  0  0  0  0  0  0  0  0
    5.8607    0.9573    0.0000 N   0  0  0  0  0  0  0  0  0  0  0  0
    6.8506    1.5579    0.0000 C   0  0  0  0  0  0  0  0  0  0  0  0
    8.0630    0.8579    0.0000 O   0  0  0  0  0  0  0  0  0  0  0  0
    6.8506    2.9579    0.0000 O   0  0  0  0  0  0  0  0  0  0  0  0
    9.2755    1.5579    0.0000 C   0  0  0  0  0  0  0  0  0  0  0  0
   10.4879    0.8579    0.0000 C   0  0  0  0  0  0  0  0  0  0  0  0
   11.7003    1.5579    0.0000 C   0  0  0  0  0  0  0  0  0  0  0  0
   12.9128    0.8579    0.0000 C   0  0  0  0  0  0  0  0  0  0  0  0
   14.1252    1.5579    0.0000 C   0  0  0  0  0  0  0  0  0  0  0  0
   15.3377    0.8579    0.0000 C   0  0  0  0  0  0  0  0  0  0  0  0
   16.5501    1.5579    0.0000 C   0  0  0  0  0  0  0  0  0  0  0  0
   17.7625    0.8579    0.0000 C   0  0  0  0  0  0  0  0  0  0  0  0
   18.9750    1.5579    0.0000 C   0  0  0  0  0  0  0  0  0  0  0  0
   20.1874    0.8579    0.0000 C   0  0  0  0  0  0  0  0  0  0  0  0
  1  2  1  0  0  0  0
  2  3  1  0  0  0  0
  3  4  1  0  0  0  0
  4  5  1  0  0  0  0
  5  6  1  0  0  0  0
  6  1  1  0  0  0  0
  3  7  1  0  0  0  0
  1  8  1  0  0  0  0
  7  9  1  0  0  0  0
  8  9  1  0  0  0  0
  5 10  1  0  0  0  0
 10  9  1  0  0  0  0
  5 11  1  0  0  0  0
 11 12  1  0  0  0  0
 12 13  1  0  0  0  0
 12 14  2  0  0  0  0
 13 15  1  0  0  0  0
 15 16  1  0  0  0  0
 16 17  1  0  0  0  0
 17 18  1  0  0  0  0
 18 19  1  0  0  0  0
 19 20  1  0  0  0  0
 20 21  1  0  0  0  0
 21 22  1  0  0  0  0
 22 23  1  0  0  0  0
 23 24  1  0  0  0  0
M  END
> <Molecule Name>
796

> <CDD Number>
CDD-15744

> <Human_sEH_IC50_uM>
4.9

> <Mouse_sEH_IC50_uM>
2.2

$$$$

SketchEl molfile

 24 26  0  0  0  0  0  0  0  0999 V2000
    0.9568    1.6573    0.0000 C   0  0  0  0  0  0  0  0  0  0  0  0
    0.0000    0.0000    0.0000 C   0  0  0  0  0  0  0  0  0  0  0  0
    1.8400    0.5259    0.0000 C   0  0  0  0  0  0  0  0  0  0  0  0
    3.6912    0.0000    0.0000 C   0  0  0  0  0  0  0  0  0  0  0  0
    4.6482    1.6573    0.0000 C   0  0  0  0  0  0  0  0  0  0  0  0
    2.8081    1.1316    0.0000 C   0  0  0  0  0  0  0  0  0  0  0  0
    1.8400    2.4395    0.0000 C   0  0  0  0  0  0  0  0  0  0  0  0
    0.9568    3.5709    0.0000 C   0  0  0  0  0  0  0  0  0  0  0  0
    2.7969    4.0968    0.0000 C   0  0  0  0  0  0  0  0  0  0  0  0
    4.6482    3.5709    0.0000 C   0  0  0  0  0  0  0  0  0  0  0  0
    5.8607    0.9573    0.0000 N   0  0  0  0  0  0  0  0  0  0  0  0
    6.8506    1.5579    0.0000 C   0  0  0  0  0  0  0  0  0  0  0  0
    8.0630    0.8579    0.0000 O   0  0  0  0  0  0  0  0  0  0  0  0
    6.8506    2.9579    0.0000 O   0  0  0  0  0  0  0  0  0  0  0  0
    9.2755    1.5579    0.0000 C   0  0  0  0  0  0  0  0  0  0  0  0
   10.4879    0.8579    0.0000 C   0  0  0  0  0  0  0  0  0  0  0  0
   11.7003    1.5579    0.0000 C   0  0  0  0  0  0  0  0  0  0  0  0
   12.9128    0.8579    0.0000 C   0  0  0  0  0  0  0  0  0  0  0  0
   14.1252    1.5579    0.0000 C   0  0  0  0  0  0  0  0  0  0  0  0
   15.3377    0.8579    0.0000 C   0  0  0  0  0  0  0  0  0  0  0  0
   16.5501    1.5579    0.0000 C   0  0  0  0  0  0  0  0  0  0  0  0
   17.7625    0.8579    0.0000 C   0  0  0  0  0  0  0  0  0  0  0  0
   18.9750    1.5579    0.0000 C   0  0  0  0  0  0  0  0  0  0  0  0
   20.1874    0.8579    0.0000 C   0  0  0  0  0  0  0  0  0  0  0  0
  1  2  1  0  0  0  0
  2  3  1  0  0  0  0
  3  4  1  0  0  0  0
  4  5  1  0  0  0  0
  5  6  1  0  0  0  0
  6  1  1  0  0  0  0
  3  7  1  0  0  0  0
  1  8  1  0  0  0  0
  7  9  1  0  0  0  0
  8  9  1  0  0  0  0
  5 10  1  0  0  0  0
 10  9  1  0  0  0  0
  5 11  1  0  0  0  0
 11 12  1  0  0  0  0
 12 13  1  0  0  0  0
 12 14  2  0  0  0  0
 13 15  1  0  0  0  0
 15 16  1  0  0  0  0
 16 17  1  0  0  0  0
 17 18  1  0  0  0  0
 18 19  1  0  0  0  0
 19 20  1  0  0  0  0
 20 21  1  0  0  0  0
 21 22  1  0  0  0  0
 22 23  1  0  0  0  0
 23 24  1  0  0  0  0
M  END
> <Molecule Name>
796

> <CDD Number>
CDD-15744

> <Human_sEH_IC50_uM>
25.0

> <Mouse_sEH_IC50_uM>
19.0

$$$$

SketchEl molfile

 45 47  0  0  0  0  0  0  0  0999 V2000
    0.9568    2.1993    0.0000 C   0  0  0  0  0  0  0  0  0  0  0  0
    0.0000    0.5421    0.0000 C   0  0  0  0  0  0  0  0  0  0  0  0
    1.8400    1.0679    0.0000 C   0  0  0  0  0  0  0  0  0  0  0  0
    3.6912    0.5421    0.0000 C   0  0  0  0  0  0  0  0  0  0  0  0
    4.6482    2.1993    0.0000 C   0  0  0  0  0  0  0  0  0  0  0  0
    2.8081    1.6736    0.0000 C   0  0  0  0  0  0  0  0  0  0  0  0
    1.8400    2.9816    0.0000 C   0  0  0  0  0  0  0  0  0  0  0  0
    0.9568    4.1130    0.0000 C   0  0  0  0  0  0  0  0  0  0  0  0
    2.7969    4.6389    0.0000 C   0  0  0  0  0  0  0  0  0  0  0  0
    4.6482    4.1130    0.0000 C   0  0  0  0  0  0  0  0  0  0  0  0
    5.8607    1.4993    0.0000 N   0  0  0  0  0  0  0  0  0  0  0  0
    6.8506    2.1000    0.0000 C   0  0  0  0  0  0  0  0  0  0  0  0
    8.0630    1.4000    0.0000 O   0  0  0  0  0  0  0  0  0  0  0  0
    6.8506    3.5000    0.0000 O   0  0  0  0  0  0  0  0  0  0  0  0
    9.2755    2.1000    0.0000 C   0  0  0  0  0  0  0  0  0  0  0  0
   10.4879    1.4000    0.0000 C   0  0  0  0  0  0  0  0  0  0  0  0
   11.7003    2.1000    0.0000 C   0  0  0  0  0  0  0  0  0  0  0  0
   12.9128    1.4000    0.0000 C   0  0  0  0  0  0  0  0  0  0  0  0
   14.1252    2.1000    0.0000 C   0  0  0  0  0  0  0  0  0  0  0  0
   15.3377    1.4000    0.0000 C   0  0  0  0  0  0  0  0  0  0  0  0
   16.5501    2.1000    0.0000 C   0  0  0  0  0  0  0  0  0  0  0  0
   17.7625    1.4000    0.0000 C   0  0  0  0  0  0  0  0  0  0  0  0
   18.9750    2.1000    0.0000 C   0  0  0  0  0  0  0  0  0  0  0  0
   20.1874    1.4000    0.0000 C   0  0  0  0  0  0  0  0  0  0  0  0
    8.2855    3.0899    0.0000 F   0  0  0  0  0  0  0  0  0  0  0  0
    9.6378    3.4523    0.0000 F   0  0  0  0  0  0  0  0  0  0  0  0
    9.7879    0.1876    0.0000 F   0  0  0  0  0  0  0  0  0  0  0  0
   11.1879    0.1876    0.0000 F   0  0  0  0  0  0  0  0  0  0  0  0
   11.0003    3.3124    0.0000 F   0  0  0  0  0  0  0  0  0  0  0  0
   12.4003    3.3124    0.0000 F   0  0  0  0  0  0  0  0  0  0  0  0
   12.5504    0.0477    0.0000 F   0  0  0  0  0  0  0  0  0  0  0  0
   13.6128    0.1876    0.0000 F   0  0  0  0  0  0  0  0  0  0  0  0
   13.4252    3.3124    0.0000 F   0  0  0  0  0  0  0  0  0  0  0  0
   14.4876    3.4523    0.0000 F   0  0  0  0  0  0  0  0  0  0  0  0
   14.9753    0.0477    0.0000 F   0  0  0  0  0  0  0  0  0  0  0  0
   16.0377    0.1876    0.0000 F   0  0  0  0  0  0  0  0  0  0  0  0
   16.1877    3.4523    0.0000 F   0  0  0  0  0  0  0  0  0  0  0  0
   16.9124    3.4523    0.0000 F   0  0  0  0  0  0  0  0  0  0  0  0
   17.0625    0.1876    0.0000 F   0  0  0  0  0  0  0  0  0  0  0  0
   18.4625    0.1876    0.0000 F   0  0  0  0  0  0  0  0  0  0  0  0
   18.2750    3.3124    0.0000 F   0  0  0  0  0  0  0  0  0  0  0  0
   19.6750    3.3124    0.0000 F   0  0  0  0  0  0  0  0  0  0  0  0
   21.3998    2.1000    0.0000 F   0  0  0  0  0  0  0  0  0  0  0  0
   21.3998    0.7000    0.0000 F   0  0  0  0  0  0  0  0  0  0  0  0
   20.1874    0.0000    0.0000 F   0  0  0  0  0  0  0  0  0  0  0  0
  1  2  1  0  0  0  0
  2  3  1  0  0  0  0
  3  4  1  0  0  0  0
  4  5  1  0  0  0  0
  5  6  1  0  0  0  0
  6  1  1  0  0  0  0
  3  7  1  0  0  0  0
  1  8  1  0  0  0  0
  7  9  1  0  0  0  0
  8  9  1  0  0  0  0
  5 10  1  0  0  0  0
 10  9  1  0  0  0  0
  5 11  1  0  0  0  0
 11 12  1  0  0  0  0
 12 13  1  0  0  0  0
 12 14  2  0  0  0  0
 13 15  1  0  0  0  0
 15 16  1  0  0  0  0
 16 17  1  0  0  0  0
 17 18  1  0  0  0  0
 18 19  1  0  0  0  0
 19 20  1  0  0  0  0
 20 21  1  0  0  0  0
 21 22  1  0  0  0  0
 22 23  1  0  0  0  0
 23 24  1  0  0  0  0
 15 25  1  0  0  0  0
 15 26  1  0  0  0  0
 16 27  1  0  0  0  0
 16 28  1  0  0  0  0
 17 29  1  0  0  0  0
 17 30  1  0  0  0  0
 18 31  1  0  0  0  0
 18 32  1  0  0  0  0
 19 33  1  0  0  0  0
 19 34  1  0  0  0  0
 20 35  1  0  0  0  0
 20 36  1  0  0  0  0
 21 37  1  0  0  0  0
 21 38  1  0  0  0  0
 22 39  1  0  0  0  0
 22 40  1  0  0  0  0
 23 41  1  0  0  0  0
 23 42  1  0  0  0  0
 24 43  1  0  0  0  0
 24 44  1  0  0  0  0
 24 45  1  0  0  0  0
M  END
> <Molecule Name>
795

> <CDD Number>
CDD-15743

> <Human_sEH_IC50_uM>
20.0

> <Mouse_sEH_IC50_uM>
4.0

$$$$

SketchEl molfile

 45 47  0  0  0  0  0  0  0  0999 V2000
    0.9568    2.1993    0.0000 C   0  0  0  0  0  0  0  0  0  0  0  0
    0.0000    0.5421    0.0000 C   0  0  0  0  0  0  0  0  0  0  0  0
    1.8400    1.0679    0.0000 C   0  0  0  0  0  0  0  0  0  0  0  0
    3.6912    0.5421    0.0000 C   0  0  0  0  0  0  0  0  0  0  0  0
    4.6482    2.1993    0.0000 C   0  0  0  0  0  0  0  0  0  0  0  0
    2.8081    1.6736    0.0000 C   0  0  0  0  0  0  0  0  0  0  0  0
    1.8400    2.9816    0.0000 C   0  0  0  0  0  0  0  0  0  0  0  0
    0.9568    4.1130    0.0000 C   0  0  0  0  0  0  0  0  0  0  0  0
    2.7969    4.6389    0.0000 C   0  0  0  0  0  0  0  0  0  0  0  0
    4.6482    4.1130    0.0000 C   0  0  0  0  0  0  0  0  0  0  0  0
    5.8607    1.4993    0.0000 N   0  0  0  0  0  0  0  0  0  0  0  0
    6.8506    2.1000    0.0000 C   0  0  0  0  0  0  0  0  0  0  0  0
    8.0630    1.4000    0.0000 O   0  0  0  0  0  0  0  0  0  0  0  0
    6.8506    3.5000    0.0000 O   0  0  0  0  0  0  0  0  0  0  0  0
    9.2755    2.1000    0.0000 C   0  0  0  0  0  0  0  0  0  0  0  0
   10.4879    1.4000    0.0000 C   0  0  0  0  0  0  0  0  0  0  0  0
   11.7003    2.1000    0.0000 C   0  0  0  0  0  0  0  0  0  0  0  0
   12.9128    1.4000    0.0000 C   0  0  0  0  0  0  0  0  0  0  0  0
   14.1252    2.1000    0.0000 C   0  0  0  0  0  0  0  0  0  0  0  0
   15.3377    1.4000    0.0000 C   0  0  0  0  0  0  0  0  0  0  0  0
   16.5501    2.1000    0.0000 C   0  0  0  0  0  0  0  0  0  0  0  0
   17.7625    1.4000    0.0000 C   0  0  0  0  0  0  0  0  0  0  0  0
   18.9750    2.1000    0.0000 C   0  0  0  0  0  0  0  0  0  0  0  0
   20.1874    1.4000    0.0000 C   0  0  0  0  0  0  0  0  0  0  0  0
    8.2855    3.0899    0.0000 F   0  0  0  0  0  0  0  0  0  0  0  0
    9.6378    3.4523    0.0000 F   0  0  0  0  0  0  0  0  0  0  0  0
    9.7879    0.1876    0.0000 F   0  0  0  0  0  0  0  0  0  0  0  0
   11.1879    0.1876    0.0000 F   0  0  0  0  0  0  0  0  0  0  0  0
   11.0003    3.3124    0.0000 F   0  0  0  0  0  0  0  0  0  0  0  0
   12.4003    3.3124    0.0000 F   0  0  0  0  0  0  0  0  0  0  0  0
   12.5504    0.0477    0.0000 F   0  0  0  0  0  0  0  0  0  0  0  0
   13.6128    0.1876    0.0000 F   0  0  0  0  0  0  0  0  0  0  0  0
   13.4252    3.3124    0.0000 F   0  0  0  0  0  0  0  0  0  0  0  0
   14.4876    3.4523    0.0000 F   0  0  0  0  0  0  0  0  0  0  0  0
   14.9753    0.0477    0.0000 F   0  0  0  0  0  0  0  0  0  0  0  0
   16.0377    0.1876    0.0000 F   0  0  0  0  0  0  0  0  0  0  0  0
   16.1877    3.4523    0.0000 F   0  0  0  0  0  0  0  0  0  0  0  0
   16.9124    3.4523    0.0000 F   0  0  0  0  0  0  0  0  0  0  0  0
   17.0625    0.1876    0.0000 F   0  0  0  0  0  0  0  0  0  0  0  0
   18.4625    0.1876    0.0000 F   0  0  0  0  0  0  0  0  0  0  0  0
   18.2750    3.3124    0.0000 F   0  0  0  0  0  0  0  0  0  0  0  0
   19.6750    3.3124    0.0000 F   0  0  0  0  0  0  0  0  0  0  0  0
   21.3998    2.1000    0.0000 F   0  0  0  0  0  0  0  0  0  0  0  0
   21.3998    0.7000    0.0000 F   0  0  0  0  0  0  0  0  0  0  0  0
   20.1874    0.0000    0.0000 F   0  0  0  0  0  0  0  0  0  0  0  0
  1  2  1  0  0  0  0
  2  3  1  0  0  0  0
  3  4  1  0  0  0  0
  4  5  1  0  0  0  0
  5  6  1  0  0  0  0
  6  1  1  0  0  0  0
  3  7  1  0  0  0  0
  1  8  1  0  0  0  0
  7  9  1  0  0  0  0
  8  9  1  0  0  0  0
  5 10  1  0  0  0  0
 10  9  1  0  0  0  0
  5 11  1  0  0  0  0
 11 12  1  0  0  0  0
 12 13  1  0  0  0  0
 12 14  2  0  0  0  0
 13 15  1  0  0  0  0
 15 16  1  0  0  0  0
 16 17  1  0  0  0  0
 17 18  1  0  0  0  0
 18 19  1  0  0  0  0
 19 20  1  0  0  0  0
 20 21  1  0  0  0  0
 21 22  1  0  0  0  0
 22 23  1  0  0  0  0
 23 24  1  0  0  0  0
 15 25  1  0  0  0  0
 15 26  1  0  0  0  0
 16 27  1  0  0  0  0
 16 28  1  0  0  0  0
 17 29  1  0  0  0  0
 17 30  1  0  0  0  0
 18 31  1  0  0  0  0
 18 32  1  0  0  0  0
 19 33  1  0  0  0  0
 19 34  1  0  0  0  0
 20 35  1  0  0  0  0
 20 36  1  0  0  0  0
 21 37  1  0  0  0  0
 21 38  1  0  0  0  0
 22 39  1  0  0  0  0
 22 40  1  0  0  0  0
 23 41  1  0  0  0  0
 23 42  1  0  0  0  0
 24 43  1  0  0  0  0
 24 44  1  0  0  0  0
 24 45  1  0  0  0  0
M  END
> <Molecule Name>
795

> <CDD Number>
CDD-15743

> <Human_sEH_IC50_uM>
20.3

> <Mouse_sEH_IC50_uM>
7.0

$$$$

SketchEl molfile

 21 21  0  0  0  0  0  0  0  0999 V2000
    0.7000    2.5886    0.0000 C   0  0  0  0  0  0  0  0  0  0  0  0
    0.0000    1.3762    0.0000 C   0  0  0  0  0  0  0  0  0  0  0  0
    1.3461    1.7609    0.0000 C   0  0  0  0  0  0  0  0  0  0  0  0
    2.7004    1.3762    0.0000 C   0  0  0  0  0  0  0  0  0  0  0  0
    3.4006    2.5886    0.0000 C   0  0  0  0  0  0  0  0  0  0  0  0
    2.0543    2.2040    0.0000 C   0  0  0  0  0  0  0  0  0  0  0  0
    4.3905    1.5987    0.0000 N   0  0  0  0  0  0  0  0  0  0  0  0
    5.3805    2.1993    0.0000 C   0  0  0  0  0  0  0  0  0  0  0  0
    6.5929    1.4993    0.0000 N   0  0  0  0  0  0  0  0  0  0  0  0
    5.3805    3.5993    0.0000 O   0  0  0  0  0  0  0  0  0  0  0  0
    7.5828    2.1000    0.0000 C   0  0  0  0  0  0  0  0  0  0  0  0
    8.7953    1.4000    0.0000 C   0  0  0  0  0  0  0  0  0  0  0  0
   10.0077    2.1000    0.0000 C   0  0  0  0  0  0  0  0  0  0  0  0
   11.2202    1.4000    0.0000 C   0  0  0  0  0  0  0  0  0  0  0  0
   12.4326    2.1000    0.0000 C   0  0  0  0  0  0  0  0  0  0  0  0
   13.6450    1.4000    0.0000 C   0  0  0  0  0  0  0  0  0  0  0  0
   14.8575    2.1000    0.0000 C   0  0  0  0  0  0  0  0  0  0  0  0
   16.0699    1.4000    0.0000 C   0  0  0  0  0  0  0  0  0  0  0  0
   17.2823    2.1000    0.0000 C   0  0  0  0  0  0  0  0  0  0  0  0
   18.4948    1.4000    0.0000 C   0  0  0  0  0  0  0  0  0  0  0  0
   11.2202    0.0000    0.0000 O   0  0  0  0  0  0  0  0  0  0  0  0
  1  2  1  0  0  0  0
  2  3  1  0  0  0  0
  3  4  1  0  0  0  0
  4  5  1  0  0  0  0
  5  6  1  0  0  0  0
  6  1  1  0  0  0  0
  5  7  1  0  0  0  0
  7  8  1  0  0  0  0
  8  9  1  0  0  0  0
  8 10  2  0  0  0  0
  9 11  1  0  0  0  0
 11 12  1  0  0  0  0
 12 13  1  0  0  0  0
 13 14  1  0  0  0  0
 14 15  1  0  0  0  0
 15 16  1  0  0  0  0
 16 17  1  0  0  0  0
 17 18  1  0  0  0  0
 18 19  1  0  0  0  0
 19 20  1  0  0  0  0
 14 21  2  0  0  0  0
M  END
> <Molecule Name>
794

> <CDD Number>
CDD-15742

> <Human_sEH_IC50_uM>
2.1

> <Mouse_sEH_IC50_uM>
0.41

$$$$

SketchEl molfile

 31 33  0  0  0  0  0  0  0  0999 V2000
    0.8463    2.3249    0.0000 C   0  0  0  0  0  0  0  0  0  0  0  0
    0.0000    0.8590    0.0000 C   0  0  0  0  0  0  0  0  0  0  0  0
    1.6275    1.3241    0.0000 C   0  0  0  0  0  0  0  0  0  0  0  0
    3.2649    0.8590    0.0000 C   0  0  0  0  0  0  0  0  0  0  0  0
    4.1115    2.3249    0.0000 C   0  0  0  0  0  0  0  0  0  0  0  0
    2.4838    1.8599    0.0000 C   0  0  0  0  0  0  0  0  0  0  0  0
    1.6275    3.0168    0.0000 C   0  0  0  0  0  0  0  0  0  0  0  0
    0.8463    4.0175    0.0000 C   0  0  0  0  0  0  0  0  0  0  0  0
    2.4739    4.4827    0.0000 C   0  0  0  0  0  0  0  0  0  0  0  0
    4.1115    4.0175    0.0000 C   0  0  0  0  0  0  0  0  0  0  0  0
    5.5774    1.4785    0.0000 N   0  0  0  0  0  0  0  0  0  0  0  0
    6.7743    2.2048    0.0000 C   0  0  0  0  0  0  0  0  0  0  0  0
    8.2401    1.3584    0.0000 N   0  0  0  0  0  0  0  0  0  0  0  0
    6.7743    3.8974    0.0000 O   0  0  0  0  0  0  0  0  0  0  0  0
    9.4370    2.0847    0.0000 C   0  0  0  0  0  0  0  0  0  0  0  0
   10.9029    1.2383    0.0000 C   0  0  0  0  0  0  0  0  0  0  0  0
   11.9754    1.8575    0.0000 C   0  0  0  0  0  0  0  0  0  0  0  0
   13.0478    1.2383    0.0000 C   0  0  0  0  0  0  0  0  0  0  0  0
   14.1202    1.8575    0.0000 C   0  0  0  0  0  0  0  0  0  0  0  0
   15.1926    1.2383    0.0000 C   0  0  0  0  0  0  0  0  0  0  0  0
   16.2651    1.8575    0.0000 C   0  0  0  0  0  0  0  0  0  0  0  0
   17.3375    1.2383    0.0000 C   0  0  0  0  0  0  0  0  0  0  0  0
   18.4099    1.8575    0.0000 C   0  0  0  0  0  0  0  0  0  0  0  0
   19.4824    1.2383    0.0000 C   0  0  0  0  0  0  0  0  0  0  0  0
   20.5548    1.8575    0.0000 C   0  0  0  0  0  0  0  0  0  0  0  0
   21.6272    1.2383    0.0000 C   0  0  0  0  0  0  0  0  0  0  0  0
   22.6996    1.8575    0.0000 N   0  0  0  0  0  0  0  0  0  0  0  0
   23.5753    1.3262    0.0000 C   0  0  0  0  0  0  0  0  0  0  0  0
   23.5753    0.0879    0.0000 C   0  0  0  0  0  0  0  0  0  0  0  0
   24.6477    1.9454    0.0000 C   0  0  0  0  0  0  0  0  0  0  0  0
   21.6272    0.0000    0.0000 O   0  0  0  0  0  0  0  0  0  0  0  0
  1  2  1  0  0  0  0
  2  3  1  0  0  0  0
  3  4  1  0  0  0  0
  4  5  1  0  0  0  0
  5  6  1  0  0  0  0
  6  1  1  0  0  0  0
  3  7  1  0  0  0  0
  1  8  1  0  0  0  0
  7  9  1  0  0  0  0
  8  9  1  0  0  0  0
  5 10  1  0  0  0  0
 10  9  1  0  0  0  0
  5 11  1  0  0  0  0
 11 12  1  0  0  0  0
 12 13  1  0  0  0  0
 12 14  2  0  0  0  0
 13 15  1  0  0  0  0
 15 16  1  0  0  0  0
 16 17  1  0  0  0  0
 17 18  1  0  0  0  0
 18 19  1  0  0  0  0
 19 20  1  0  0  0  0
 20 21  1  0  0  0  0
 21 22  1  0  0  0  0
 22 23  1  0  0  0  0
 23 24  1  0  0  0  0
 24 25  1  0  0  0  0
 25 26  1  0  0  0  0
 26 27  1  0  0  0  0
 27 28  1  0  0  0  0
 28 29  1  0  0  0  0
 28 30  1  0  0  0  0
 26 31  2  0  0  0  0
M  END
> <Molecule Name>
793

> <CDD Number>
CDD-15740

> <Human_sEH_IC50_uM>
0.1

> <Mouse_sEH_IC50_uM>
0.05

$$$$

SketchEl molfile

 30 32  0  0  0  0  0  0  0  0999 V2000
    0.7000    1.9229    0.0000 C   0  0  0  0  0  0  0  0  0  0  0  0
    0.0000    0.7104    0.0000 C   0  0  0  0  0  0  0  0  0  0  0  0
    1.3461    1.0952    0.0000 C   0  0  0  0  0  0  0  0  0  0  0  0
    2.7004    0.7104    0.0000 C   0  0  0  0  0  0  0  0  0  0  0  0
    3.4006    1.9229    0.0000 C   0  0  0  0  0  0  0  0  0  0  0  0
    2.0543    1.5383    0.0000 C   0  0  0  0  0  0  0  0  0  0  0  0
    1.3461    2.4952    0.0000 C   0  0  0  0  0  0  0  0  0  0  0  0
    0.7000    3.3229    0.0000 C   0  0  0  0  0  0  0  0  0  0  0  0
    2.0461    3.7076    0.0000 C   0  0  0  0  0  0  0  0  0  0  0  0
    3.4006    3.3229    0.0000 C   0  0  0  0  0  0  0  0  0  0  0  0
    4.6130    1.2229    0.0000 N   0  0  0  0  0  0  0  0  0  0  0  0
    5.6030    1.8235    0.0000 C   0  0  0  0  0  0  0  0  0  0  0  0
    6.8154    1.1235    0.0000 N   0  0  0  0  0  0  0  0  0  0  0  0
    5.6030    3.2235    0.0000 O   0  0  0  0  0  0  0  0  0  0  0  0
    7.8053    1.7242    0.0000 C   0  0  0  0  0  0  0  0  0  0  0  0
    9.0178    1.0242    0.0000 C   0  0  0  0  0  0  0  0  0  0  0  0
    9.9048    1.5363    0.0000 C   0  0  0  0  0  0  0  0  0  0  0  0
   10.7918    1.0242    0.0000 C   0  0  0  0  0  0  0  0  0  0  0  0
   11.6788    1.5363    0.0000 C   0  0  0  0  0  0  0  0  0  0  0  0
   12.5658    1.0242    0.0000 C   0  0  0  0  0  0  0  0  0  0  0  0
   13.4528    1.5363    0.0000 C   0  0  0  0  0  0  0  0  0  0  0  0
   14.3398    1.0242    0.0000 C   0  0  0  0  0  0  0  0  0  0  0  0
   15.2268    1.5363    0.0000 C   0  0  0  0  0  0  0  0  0  0  0  0
   16.1138    1.0242    0.0000 C   0  0  0  0  0  0  0  0  0  0  0  0
   17.0008    1.5363    0.0000 C   0  0  0  0  0  0  0  0  0  0  0  0
   17.8878    1.0242    0.0000 C   0  0  0  0  0  0  0  0  0  0  0  0
   18.7748    1.5363    0.0000 N   0  0  0  0  0  0  0  0  0  0  0  0
   19.4990    1.0969    0.0000 C   0  0  0  0  0  0  0  0  0  0  0  0
   20.3860    1.6090    0.0000 C   0  0  0  0  0  0  0  0  0  0  0  0
   17.8878    0.0000    0.0000 O   0  0  0  0  0  0  0  0  0  0  0  0
  1  2  1  0  0  0  0
  2  3  1  0  0  0  0
  3  4  1  0  0  0  0
  4  5  1  0  0  0  0
  5  6  1  0  0  0  0
  6  1  1  0  0  0  0
  3  7  1  0  0  0  0
  1  8  1  0  0  0  0
  7  9  1  0  0  0  0
  8  9  1  0  0  0  0
  5 10  1  0  0  0  0
 10  9  1  0  0  0  0
  5 11  1  0  0  0  0
 11 12  1  0  0  0  0
 12 13  1  0  0  0  0
 12 14  2  0  0  0  0
 13 15  1  0  0  0  0
 15 16  1  0  0  0  0
 16 17  1  0  0  0  0
 17 18  1  0  0  0  0
 18 19  1  0  0  0  0
 19 20  1  0  0  0  0
 20 21  1  0  0  0  0
 21 22  1  0  0  0  0
 22 23  1  0  0  0  0
 23 24  1  0  0  0  0
 24 25  1  0  0  0  0
 25 26  1  0  0  0  0
 26 27  1  0  0  0  0
 27 28  1  0  0  0  0
 28 29  1  0  0  0  0
 26 30  2  0  0  0  0
M  END
> <Molecule Name>
792

> <CDD Number>
CDD-15741

> <Human_sEH_IC50_uM>
0.1

> <Mouse_sEH_IC50_uM>
0.05

$$$$

SketchEl molfile

 20 20  0  0  0  0  0  0  0  0999 V2000
    0.7000    1.2124    0.0000 C   0  0  0  0  0  0  0  0  0  0  0  0
    0.0000    0.0000    0.0000 C   0  0  0  0  0  0  0  0  0  0  0  0
    1.3461    0.3847    0.0000 C   0  0  0  0  0  0  0  0  0  0  0  0
    2.7004    0.0000    0.0000 C   0  0  0  0  0  0  0  0  0  0  0  0
    3.4006    1.2124    0.0000 C   0  0  0  0  0  0  0  0  0  0  0  0
    2.0543    0.8278    0.0000 C   0  0  0  0  0  0  0  0  0  0  0  0
    4.3905    0.2225    0.0000 N   0  0  0  0  0  0  0  0  0  0  0  0
    5.3805    0.8232    0.0000 C   0  0  0  0  0  0  0  0  0  0  0  0
    6.5929    0.1232    0.0000 N   0  0  0  0  0  0  0  0  0  0  0  0
    5.3805    2.2232    0.0000 O   0  0  0  0  0  0  0  0  0  0  0  0
    7.5828    0.7238    0.0000 C   0  0  0  0  0  0  0  0  0  0  0  0
    8.7953    0.0238    0.0000 C   0  0  0  0  0  0  0  0  0  0  0  0
   10.0077    0.7238    0.0000 C   0  0  0  0  0  0  0  0  0  0  0  0
   11.2202    0.0238    0.0000 C   0  0  0  0  0  0  0  0  0  0  0  0
   12.4326    0.7238    0.0000 C   0  0  0  0  0  0  0  0  0  0  0  0
   13.6450    0.0238    0.0000 C   0  0  0  0  0  0  0  0  0  0  0  0
   14.8575    0.7238    0.0000 C   0  0  0  0  0  0  0  0  0  0  0  0
   16.0699    0.0238    0.0000 C   0  0  0  0  0  0  0  0  0  0  0  0
   17.2823    0.7238    0.0000 C   0  0  0  0  0  0  0  0  0  0  0  0
   18.4948    0.0238    0.0000 C   0  0  0  0  0  0  0  0  0  0  0  0
  1  2  1  0  0  0  0
  2  3  1  0  0  0  0
  3  4  1  0  0  0  0
  4  5  1  0  0  0  0
  5  6  1  0  0  0  0
  6  1  1  0  0  0  0
  5  7  1  0  0  0  0
  7  8  1  0  0  0  0
  8  9  1  0  0  0  0
  8 10  2  0  0  0  0
  9 11  1  0  0  0  0
 11 12  1  0  0  0  0
 12 13  1  0  0  0  0
 13 14  1  0  0  0  0
 14 15  1  0  0  0  0
 15 16  1  0  0  0  0
 16 17  1  0  0  0  0
 17 18  1  0  0  0  0
 18 19  1  0  0  0  0
 19 20  1  0  0  0  0
M  END
> <Molecule Name>
791

> <CDD Number>
CDD-15739

> <Human_sEH_IC50_uM>
0.14

> <Mouse_sEH_IC50_uM>
0.05

$$$$

SketchEl molfile

 20 20  0  0  0  0  0  0  0  0999 V2000
    0.7000    1.2124    0.0000 C   0  0  0  0  0  0  0  0  0  0  0  0
    0.0000    0.0000    0.0000 C   0  0  0  0  0  0  0  0  0  0  0  0
    1.3461    0.3847    0.0000 C   0  0  0  0  0  0  0  0  0  0  0  0
    2.7004    0.0000    0.0000 C   0  0  0  0  0  0  0  0  0  0  0  0
    3.4006    1.2124    0.0000 C   0  0  0  0  0  0  0  0  0  0  0  0
    2.0543    0.8278    0.0000 C   0  0  0  0  0  0  0  0  0  0  0  0
    4.3905    0.2225    0.0000 N   0  0  0  0  0  0  0  0  0  0  0  0
    5.3805    0.8232    0.0000 C   0  0  0  0  0  0  0  0  0  0  0  0
    6.5929    0.1232    0.0000 N   0  0  0  0  0  0  0  0  0  0  0  0
    5.3805    2.2232    0.0000 O   0  0  0  0  0  0  0  0  0  0  0  0
    7.5828    0.7238    0.0000 C   0  0  0  0  0  0  0  0  0  0  0  0
    8.7953    0.0238    0.0000 C   0  0  0  0  0  0  0  0  0  0  0  0
   10.0077    0.7238    0.0000 C   0  0  0  0  0  0  0  0  0  0  0  0
   11.2202    0.0238    0.0000 C   0  0  0  0  0  0  0  0  0  0  0  0
   12.4326    0.7238    0.0000 C   0  0  0  0  0  0  0  0  0  0  0  0
   13.6450    0.0238    0.0000 C   0  0  0  0  0  0  0  0  0  0  0  0
   14.8575    0.7238    0.0000 C   0  0  0  0  0  0  0  0  0  0  0  0
   16.0699    0.0238    0.0000 C   0  0  0  0  0  0  0  0  0  0  0  0
   17.2823    0.7238    0.0000 C   0  0  0  0  0  0  0  0  0  0  0  0
   18.4948    0.0238    0.0000 C   0  0  0  0  0  0  0  0  0  0  0  0
  1  2  1  0  0  0  0
  2  3  1  0  0  0  0
  3  4  1  0  0  0  0
  4  5  1  0  0  0  0
  5  6  1  0  0  0  0
  6  1  1  0  0  0  0
  5  7  1  0  0  0  0
  7  8  1  0  0  0  0
  8  9  1  0  0  0  0
  8 10  2  0  0  0  0
  9 11  1  0  0  0  0
 11 12  1  0  0  0  0
 12 13  1  0  0  0  0
 13 14  1  0  0  0  0
 14 15  1  0  0  0  0
 15 16  1  0  0  0  0
 16 17  1  0  0  0  0
 17 18  1  0  0  0  0
 18 19  1  0  0  0  0
 19 20  1  0  0  0  0
M  END
> <Molecule Name>
791

> <CDD Number>
CDD-15739

> <Human_sEH_IC50_uM>
0.1

> <Mouse_sEH_IC50_uM>
0.06

$$$$

SketchEl molfile

 24 26  0  0  0  0  0  0  0  0999 V2000
    0.7000    1.2124    0.0000 C   0  0  0  0  0  0  0  0  0  0  0  0
    0.0000    0.0000    0.0000 C   0  0  0  0  0  0  0  0  0  0  0  0
    1.3461    0.3847    0.0000 C   0  0  0  0  0  0  0  0  0  0  0  0
    2.7004    0.0000    0.0000 C   0  0  0  0  0  0  0  0  0  0  0  0
    3.4006    1.2124    0.0000 C   0  0  0  0  0  0  0  0  0  0  0  0
    2.0543    0.8278    0.0000 C   0  0  0  0  0  0  0  0  0  0  0  0
    1.3461    1.7847    0.0000 C   0  0  0  0  0  0  0  0  0  0  0  0
    0.7000    2.6124    0.0000 C   0  0  0  0  0  0  0  0  0  0  0  0
    2.0461    2.9972    0.0000 C   0  0  0  0  0  0  0  0  0  0  0  0
    3.4006    2.6124    0.0000 C   0  0  0  0  0  0  0  0  0  0  0  0
    4.6130    0.5124    0.0000 N   0  0  0  0  0  0  0  0  0  0  0  0
    5.6030    1.1131    0.0000 C   0  0  0  0  0  0  0  0  0  0  0  0
    6.8154    0.4131    0.0000 N   0  0  0  0  0  0  0  0  0  0  0  0
    5.6030    2.5131    0.0000 O   0  0  0  0  0  0  0  0  0  0  0  0
    7.8053    1.0138    0.0000 C   0  0  0  0  0  0  0  0  0  0  0  0
    9.0178    0.3138    0.0000 C   0  0  0  0  0  0  0  0  0  0  0  0
    9.9048    0.8259    0.0000 C   0  0  0  0  0  0  0  0  0  0  0  0
   10.7918    0.3138    0.0000 C   0  0  0  0  0  0  0  0  0  0  0  0
   11.6788    0.8259    0.0000 C   0  0  0  0  0  0  0  0  0  0  0  0
   12.5658    0.3138    0.0000 C   0  0  0  0  0  0  0  0  0  0  0  0
   13.4528    0.8259    0.0000 C   0  0  0  0  0  0  0  0  0  0  0  0
   14.3398    0.3138    0.0000 C   0  0  0  0  0  0  0  0  0  0  0  0
   15.2268    0.8259    0.0000 C   0  0  0  0  0  0  0  0  0  0  0  0
   16.1138    0.3138    0.0000 C   0  0  0  0  0  0  0  0  0  0  0  0
  1  2  1  0  0  0  0
  2  3  1  0  0  0  0
  3  4  1  0  0  0  0
  4  5  1  0  0  0  0
  5  6  1  0  0  0  0
  6  1  1  0  0  0  0
  3  7  1  0  0  0  0
  1  8  1  0  0  0  0
  7  9  1  0  0  0  0
  8  9  1  0  0  0  0
  5 10  1  0  0  0  0
 10  9  1  0  0  0  0
  5 11  1  0  0  0  0
 11 12  1  0  0  0  0
 12 13  1  0  0  0  0
 12 14  2  0  0  0  0
 13 15  1  0  0  0  0
 15 16  1  0  0  0  0
 16 17  1  0  0  0  0
 17 18  1  0  0  0  0
 18 19  1  0  0  0  0
 19 20  1  0  0  0  0
 20 21  1  0  0  0  0
 21 22  1  0  0  0  0
 22 23  1  0  0  0  0
 23 24  1  0  0  0  0
M  END
> <Molecule Name>
790

> <CDD Number>
CDD-15738

> <Human_sEH_IC50_uM>
0.11

> <Mouse_sEH_IC50_uM>
0.05

$$$$

SketchEl molfile

 25 27  0  0  0  0  0  0  0  0999 V2000
    0.7000    1.9229    0.0000 C   0  0  0  0  0  0  0  0  0  0  0  0
    0.0000    0.7104    0.0000 C   0  0  0  0  0  0  0  0  0  0  0  0
    1.3461    1.0952    0.0000 C   0  0  0  0  0  0  0  0  0  0  0  0
    2.7004    0.7104    0.0000 C   0  0  0  0  0  0  0  0  0  0  0  0
    3.4006    1.9229    0.0000 C   0  0  0  0  0  0  0  0  0  0  0  0
    2.0543    1.5383    0.0000 C   0  0  0  0  0  0  0  0  0  0  0  0
    1.3461    2.4952    0.0000 C   0  0  0  0  0  0  0  0  0  0  0  0
    0.7000    3.3229    0.0000 C   0  0  0  0  0  0  0  0  0  0  0  0
    2.0461    3.7076    0.0000 C   0  0  0  0  0  0  0  0  0  0  0  0
    3.4006    3.3229    0.0000 C   0  0  0  0  0  0  0  0  0  0  0  0
    4.6130    1.2229    0.0000 N   0  0  0  0  0  0  0  0  0  0  0  0
    5.6030    1.8235    0.0000 C   0  0  0  0  0  0  0  0  0  0  0  0
    6.8154    1.1235    0.0000 N   0  0  0  0  0  0  0  0  0  0  0  0
    5.6030    3.2235    0.0000 O   0  0  0  0  0  0  0  0  0  0  0  0
    7.8053    1.7242    0.0000 C   0  0  0  0  0  0  0  0  0  0  0  0
    9.0178    1.0242    0.0000 C   0  0  0  0  0  0  0  0  0  0  0  0
    9.9048    1.5363    0.0000 C   0  0  0  0  0  0  0  0  0  0  0  0
   10.7918    1.0242    0.0000 C   0  0  0  0  0  0  0  0  0  0  0  0
   11.6788    1.5363    0.0000 O   0  0  0  0  0  0  0  0  0  0  0  0
   10.7918    0.0000    0.0000 O   0  0  0  0  0  0  0  0  0  0  0  0
   12.5658    1.0242    0.0000 C   0  0  0  0  0  0  0  0  0  0  0  0
   13.4528    1.5363    0.0000 C   0  0  0  0  0  0  0  0  0  0  0  0
   14.3398    1.0242    0.0000 C   0  0  0  0  0  0  0  0  0  0  0  0
   15.2268    1.5363    0.0000 C   0  0  0  0  0  0  0  0  0  0  0  0
   16.1138    1.0242    0.0000 C   0  0  0  0  0  0  0  0  0  0  0  0
  1  2  1  0  0  0  0
  2  3  1  0  0  0  0
  3  4  1  0  0  0  0
  4  5  1  0  0  0  0
  5  6  1  0  0  0  0
  6  1  1  0  0  0  0
  3  7  1  0  0  0  0
  1  8  1  0  0  0  0
  7  9  1  0  0  0  0
  8  9  1  0  0  0  0
  5 10  1  0  0  0  0
 10  9  1  0  0  0  0
  5 11  1  0  0  0  0
 11 12  1  0  0  0  0
 12 13  1  0  0  0  0
 12 14  2  0  0  0  0
 13 15  1  0  0  0  0
 15 16  1  0  0  0  0
 16 17  1  0  0  0  0
 17 18  1  0  0  0  0
 18 19  1  0  0  0  0
 18 20  2  0  0  0  0
 19 21  1  0  0  0  0
 21 22  1  0  0  0  0
 22 23  1  0  0  0  0
 23 24  1  0  0  0  0
 24 25  1  0  0  0  0
M  END
> <Molecule Name>
789

> <CDD Number>
CDD-15737

> <Human_sEH_IC50_uM>
0.17

> <Mouse_sEH_IC50_uM>
0.05

$$$$

SketchEl molfile

 31 33  0  0  0  0  0  0  0  0999 V2000
    0.7000    3.6929    0.0000 C   0  0  0  0  0  0  0  0  0  0  0  0
    0.0000    2.4804    0.0000 C   0  0  0  0  0  0  0  0  0  0  0  0
    1.3461    2.8651    0.0000 C   0  0  0  0  0  0  0  0  0  0  0  0
    2.7004    2.4804    0.0000 C   0  0  0  0  0  0  0  0  0  0  0  0
    3.4006    3.6929    0.0000 C   0  0  0  0  0  0  0  0  0  0  0  0
    2.0543    3.3083    0.0000 C   0  0  0  0  0  0  0  0  0  0  0  0
    1.3461    4.2651    0.0000 C   0  0  0  0  0  0  0  0  0  0  0  0
    0.7000    5.0929    0.0000 C   0  0  0  0  0  0  0  0  0  0  0  0
    2.0461    5.4776    0.0000 C   0  0  0  0  0  0  0  0  0  0  0  0
    3.4006    5.0929    0.0000 C   0  0  0  0  0  0  0  0  0  0  0  0
    4.6130    2.9929    0.0000 N   0  0  0  0  0  0  0  0  0  0  0  0
    5.6030    3.5935    0.0000 C   0  0  0  0  0  0  0  0  0  0  0  0
    6.8154    2.8935    0.0000 N   0  0  0  0  0  0  0  0  0  0  0  0
    5.6030    4.9935    0.0000 O   0  0  0  0  0  0  0  0  0  0  0  0
    7.8053    3.4942    0.0000 C   0  0  0  0  0  0  0  0  0  0  0  0
    9.0178    2.7942    0.0000 C   0  0  0  0  0  0  0  0  0  0  0  0
   10.2302    3.4942    0.0000 C   0  0  0  0  0  0  0  0  0  0  0  0
   11.4426    2.7942    0.0000 C   0  0  0  0  0  0  0  0  0  0  0  0
   12.6551    3.4942    0.0000 C   0  0  0  0  0  0  0  0  0  0  0  0
   13.8675    2.7942    0.0000 C   0  0  0  0  0  0  0  0  0  0  0  0
   15.0799    3.4942    0.0000 C   0  0  0  0  0  0  0  0  0  0  0  0
   16.2924    2.7942    0.0000 C   0  0  0  0  0  0  0  0  0  0  0  0
   17.5441    3.4942    0.0000 C   0  0  0  0  0  0  0  0  0  0  0  0
   19.7344    2.3295    0.0000 C   0  0  0  0  0  0  0  0  0  0  0  0
   21.7518    3.4942    0.0000 C   0  0  0  0  0  0  0  0  0  0  0  0
   23.7691    2.3295    0.0000 C   0  0  0  0  0  0  0  0  0  0  0  0
   23.7691    0.0000    0.0000 O   0  0  0  0  0  0  0  0  0  0  0  0
   25.7865    3.4942    0.0000 O   0  0  0  0  0  0  0  0  0  0  0  0
   26.6735    2.9821    0.0000 C   0  0  0  0  0  0  0  0  0  0  0  0
   27.5605    3.4942    0.0000 C   0  0  0  0  0  0  0  0  0  0  0  0
   28.4475    2.9821    0.0000 C   0  0  0  0  0  0  0  0  0  0  0  0
  1  2  1  0  0  0  0
  2  3  1  0  0  0  0
  3  4  1  0  0  0  0
  4  5  1  0  0  0  0
  5  6  1  0  0  0  0
  6  1  1  0  0  0  0
  3  7  1  0  0  0  0
  1  8  1  0  0  0  0
  7  9  1  0  0  0  0
  8  9  1  0  0  0  0
  5 10  1  0  0  0  0
 10  9  1  0  0  0  0
  5 11  1  0  0  0  0
 11 12  1  0  0  0  0
 12 13  1  0  0  0  0
 12 14  2  0  0  0  0
 13 15  1  0  0  0  0
 15 16  1  0  0  0  0
 16 17  1  0  0  0  0
 17 18  1  0  0  0  0
 18 19  1  0  0  0  0
 19 20  1  0  0  0  0
 20 21  1  0  0  0  0
 21 22  1  0  0  0  0
 22 23  1  0  0  0  0
 23 24  1  0  0  0  0
 24 25  1  0  0  0  0
 25 26  1  0  0  0  0
 26 27  2  0  0  0  0
 26 28  1  0  0  0  0
 28 29  1  0  0  0  0
 29 30  1  0  0  0  0
 30 31  3  0  0  0  0
M  END
> <Molecule Name>
788

> <CDD Number>
CDD-15736

> <Human_sEH_IC50_uM>
0.1

> <Mouse_sEH_IC50_uM>
0.05

$$$$

SketchEl molfile

 39 43  0  0  0  0  0  0  0  0999 V2000
    0.7000    3.6929    0.0000 C   0  0  0  0  0  0  0  0  0  0  0  0
    0.0000    2.4804    0.0000 C   0  0  0  0  0  0  0  0  0  0  0  0
    1.3461    2.8651    0.0000 C   0  0  0  0  0  0  0  0  0  0  0  0
    2.7004    2.4804    0.0000 C   0  0  0  0  0  0  0  0  0  0  0  0
    3.4006    3.6929    0.0000 C   0  0  0  0  0  0  0  0  0  0  0  0
    2.0543    3.3083    0.0000 C   0  0  0  0  0  0  0  0  0  0  0  0
    1.3461    4.2651    0.0000 C   0  0  0  0  0  0  0  0  0  0  0  0
    0.7000    5.0929    0.0000 C   0  0  0  0  0  0  0  0  0  0  0  0
    2.0461    5.4776    0.0000 C   0  0  0  0  0  0  0  0  0  0  0  0
    3.4006    5.0929    0.0000 C   0  0  0  0  0  0  0  0  0  0  0  0
    4.6130    2.9929    0.0000 N   0  0  0  0  0  0  0  0  0  0  0  0
    5.6030    3.5935    0.0000 C   0  0  0  0  0  0  0  0  0  0  0  0
    6.8154    2.8935    0.0000 N   0  0  0  0  0  0  0  0  0  0  0  0
    5.6030    4.9935    0.0000 O   0  0  0  0  0  0  0  0  0  0  0  0
    7.8053    3.4942    0.0000 C   0  0  0  0  0  0  0  0  0  0  0  0
    9.0178    2.7942    0.0000 C   0  0  0  0  0  0  0  0  0  0  0  0
   10.2302    3.4942    0.0000 C   0  0  0  0  0  0  0  0  0  0  0  0
   11.4426    2.7942    0.0000 C   0  0  0  0  0  0  0  0  0  0  0  0
   12.6551    3.4942    0.0000 C   0  0  0  0  0  0  0  0  0  0  0  0
   13.8675    2.7942    0.0000 C   0  0  0  0  0  0  0  0  0  0  0  0
   15.0799    3.4942    0.0000 C   0  0  0  0  0  0  0  0  0  0  0  0
   16.2924    2.7942    0.0000 C   0  0  0  0  0  0  0  0  0  0  0  0
   17.5441    3.4942    0.0000 C   0  0  0  0  0  0  0  0  0  0  0  0
   19.7344    2.3295    0.0000 C   0  0  0  0  0  0  0  0  0  0  0  0
   21.7518    3.4942    0.0000 C   0  0  0  0  0  0  0  0  0  0  0  0
   23.7691    2.3295    0.0000 C   0  0  0  0  0  0  0  0  0  0  0  0
   23.7691    0.0000    0.0000 O   0  0  0  0  0  0  0  0  0  0  0  0
   25.7865    3.4942    0.0000 O   0  0  0  0  0  0  0  0  0  0  0  0
   26.6735    2.9821    0.0000 C   0  0  0  0  0  0  0  0  0  0  0  0
   27.5605    3.4942    0.0000 C   0  0  0  0  0  0  0  0  0  0  0  0
   28.4475    2.9821    0.0000 C   0  0  0  0  0  0  0  0  0  0  0  0
   29.3345    3.4942    0.0000 C   0  0  0  0  0  0  0  0  0  0  0  0
   29.3345    4.5184    0.0000 C   0  0  0  0  0  0  0  0  0  0  0  0
   28.4475    5.0305    0.0000 C   0  0  0  0  0  0  0  0  0  0  0  0
   27.5605    4.5184    0.0000 C   0  0  0  0  0  0  0  0  0  0  0  0
   28.4475    1.9579    0.0000 C   0  0  0  0  0  0  0  0  0  0  0  0
   29.3345    1.4458    0.0000 C   0  0  0  0  0  0  0  0  0  0  0  0
   30.2215    1.9579    0.0000 C   0  0  0  0  0  0  0  0  0  0  0  0
   30.2215    2.9821    0.0000 C   0  0  0  0  0  0  0  0  0  0  0  0
  1  2  1  0  0  0  0
  2  3  1  0  0  0  0
  3  4  1  0  0  0  0
  4  5  1  0  0  0  0
  5  6  1  0  0  0  0
  6  1  1  0  0  0  0
  3  7  1  0  0  0  0
  1  8  1  0  0  0  0
  7  9  1  0  0  0  0
  8  9  1  0  0  0  0
  5 10  1  0  0  0  0
 10  9  1  0  0  0  0
  5 11  1  0  0  0  0
 11 12  1  0  0  0  0
 12 13  1  0  0  0  0
 12 14  2  0  0  0  0
 13 15  1  0  0  0  0
 15 16  1  0  0  0  0
 16 17  1  0  0  0  0
 17 18  1  0  0  0  0
 18 19  1  0  0  0  0
 19 20  1  0  0  0  0
 20 21  1  0  0  0  0
 21 22  1  0  0  0  0
 22 23  1  0  0  0  0
 23 24  1  0  0  0  0
 24 25  1  0  0  0  0
 25 26  1  0  0  0  0
 26 27  2  0  0  0  0
 26 28  1  0  0  0  0
 28 29  1  0  0  0  0
 29 30  1  0  0  0  0
 30 31  2  0  0  0  0
 31 32  1  0  0  0  0
 32 33  2  0  0  0  0
 33 34  1  0  0  0  0
 34 35  2  0  0  0  0
 35 30  1  0  0  0  0
 31 36  1  0  0  0  0
 36 37  2  0  0  0  0
 37 38  1  0  0  0  0
 38 39  2  0  0  0  0
 39 32  1  0  0  0  0
M  END
> <Molecule Name>
787

> <CDD Number>
CDD-15735

> <Human_sEH_IC50_uM>
0.21

> <Mouse_sEH_IC50_uM>
0.09

$$$$

SketchEl molfile

 38 43  0  0  0  0  0  0  0  0999 V2000
    0.7000    3.6929    0.0000 C   0  0  0  0  0  0  0  0  0  0  0  0
    0.0000    2.4804    0.0000 C   0  0  0  0  0  0  0  0  0  0  0  0
    1.3461    2.8651    0.0000 C   0  0  0  0  0  0  0  0  0  0  0  0
    2.7004    2.4804    0.0000 C   0  0  0  0  0  0  0  0  0  0  0  0
    3.4006    3.6929    0.0000 C   0  0  0  0  0  0  0  0  0  0  0  0
    2.0543    3.3083    0.0000 C   0  0  0  0  0  0  0  0  0  0  0  0
    1.3461    4.2651    0.0000 C   0  0  0  0  0  0  0  0  0  0  0  0
    0.7000    5.0929    0.0000 C   0  0  0  0  0  0  0  0  0  0  0  0
    2.0461    5.4776    0.0000 C   0  0  0  0  0  0  0  0  0  0  0  0
    3.4006    5.0929    0.0000 C   0  0  0  0  0  0  0  0  0  0  0  0
    4.6130    2.9929    0.0000 N   0  0  0  0  0  0  0  0  0  0  0  0
    5.6030    3.5935    0.0000 C   0  0  0  0  0  0  0  0  0  0  0  0
    6.8154    2.8935    0.0000 N   0  0  0  0  0  0  0  0  0  0  0  0
    5.6030    4.9935    0.0000 O   0  0  0  0  0  0  0  0  0  0  0  0
    7.8053    3.4942    0.0000 C   0  0  0  0  0  0  0  0  0  0  0  0
    9.0178    2.7942    0.0000 C   0  0  0  0  0  0  0  0  0  0  0  0
   10.2302    3.4942    0.0000 C   0  0  0  0  0  0  0  0  0  0  0  0
   11.4426    2.7942    0.0000 C   0  0  0  0  0  0  0  0  0  0  0  0
   12.6551    3.4942    0.0000 C   0  0  0  0  0  0  0  0  0  0  0  0
   13.8675    2.7942    0.0000 C   0  0  0  0  0  0  0  0  0  0  0  0
   15.0800    3.4942    0.0000 C   0  0  0  0  0  0  0  0  0  0  0  0
   16.2924    2.7942    0.0000 C   0  0  0  0  0  0  0  0  0  0  0  0
   17.5441    3.4942    0.0000 C   0  0  0  0  0  0  0  0  0  0  0  0
   19.7344    2.3295    0.0000 C   0  0  0  0  0  0  0  0  0  0  0  0
   21.7518    3.4942    0.0000 C   0  0  0  0  0  0  0  0  0  0  0  0
   23.7692    2.3295    0.0000 C   0  0  0  0  0  0  0  0  0  0  0  0
   23.7692    0.0000    0.0000 O   0  0  0  0  0  0  0  0  0  0  0  0
   25.7865    3.4942    0.0000 O   0  0  0  0  0  0  0  0  0  0  0  0
   26.6735    2.9821    0.0000 C   0  0  0  0  0  0  0  0  0  0  0  0
   27.3199    2.1876    0.0000 C   0  0  0  0  0  0  0  0  0  0  0  0
   28.2570    2.6011    0.0000 C   0  0  0  0  0  0  0  0  0  0  0  0
   29.2740    2.4794    0.0000 C   0  0  0  0  0  0  0  0  0  0  0  0
   28.6276    3.2740    0.0000 C   0  0  0  0  0  0  0  0  0  0  0  0
   27.6905    2.8606    0.0000 C   0  0  0  0  0  0  0  0  0  0  0  0
   28.2570    3.6254    0.0000 C   0  0  0  0  0  0  0  0  0  0  0  0
   28.6276    4.2982    0.0000 C   0  0  0  0  0  0  0  0  0  0  0  0
   26.6735    4.0063    0.0000 C   0  0  0  0  0  0  0  0  0  0  0  0
   27.5327    4.3496    0.0000 C   0  0  0  0  0  0  0  0  0  0  0  0
  1  2  1  0  0  0  0
  2  3  1  0  0  0  0
  3  4  1  0  0  0  0
  4  5  1  0  0  0  0
  5  6  1  0  0  0  0
  6  1  1  0  0  0  0
  3  7  1  0  0  0  0
  1  8  1  0  0  0  0
  7  9  1  0  0  0  0
  8  9  1  0  0  0  0
  5 10  1  0  0  0  0
 10  9  1  0  0  0  0
  5 11  1  0  0  0  0
 11 12  1  0  0  0  0
 12 13  1  0  0  0  0
 12 14  2  0  0  0  0
 13 15  1  0  0  0  0
 15 16  1  0  0  0  0
 16 17  1  0  0  0  0
 17 18  1  0  0  0  0
 18 19  1  0  0  0  0
 19 20  1  0  0  0  0
 20 21  1  0  0  0  0
 21 22  1  0  0  0  0
 22 23  1  0  0  0  0
 23 24  1  0  0  0  0
 24 25  1  0  0  0  0
 25 26  1  0  0  0  0
 26 27  2  0  0  0  0
 26 28  1  0  0  0  0
 28 29  1  0  0  0  0
 29 30  1  0  0  0  0
 30 31  1  0  0  0  0
 31 32  1  0  0  0  0
 32 33  1  0  0  0  0
 33 34  1  0  0  0  0
 34 29  1  0  0  0  0
 31 35  1  0  0  0  0
 33 36  1  0  0  0  0
 29 37  1  0  0  0  0
 35 38  1  0  0  0  0
 36 38  1  0  0  0  0
 37 38  1  0  0  0  0
M  END
> <Molecule Name>
786

> <CDD Number>
CDD-15734

> <Human_sEH_IC50_uM>
0.23

> <Mouse_sEH_IC50_uM>
0.07

$$$$

SketchEl molfile

 38 43  0  0  0  0  0  0  0  0999 V2000
    0.7000    3.6929    0.0000 C   0  0  0  0  0  0  0  0  0  0  0  0
    0.0000    2.4804    0.0000 C   0  0  0  0  0  0  0  0  0  0  0  0
    1.3461    2.8651    0.0000 C   0  0  0  0  0  0  0  0  0  0  0  0
    2.7004    2.4804    0.0000 C   0  0  0  0  0  0  0  0  0  0  0  0
    3.4006    3.6929    0.0000 C   0  0  0  0  0  0  0  0  0  0  0  0
    2.0543    3.3083    0.0000 C   0  0  0  0  0  0  0  0  0  0  0  0
    1.3461    4.2651    0.0000 C   0  0  0  0  0  0  0  0  0  0  0  0
    0.7000    5.0929    0.0000 C   0  0  0  0  0  0  0  0  0  0  0  0
    2.0461    5.4776    0.0000 C   0  0  0  0  0  0  0  0  0  0  0  0
    3.4006    5.0929    0.0000 C   0  0  0  0  0  0  0  0  0  0  0  0
    4.6130    2.9929    0.0000 N   0  0  0  0  0  0  0  0  0  0  0  0
    5.6030    3.5935    0.0000 C   0  0  0  0  0  0  0  0  0  0  0  0
    6.8154    2.8935    0.0000 N   0  0  0  0  0  0  0  0  0  0  0  0
    5.6030    4.9935    0.0000 O   0  0  0  0  0  0  0  0  0  0  0  0
    7.8053    3.4942    0.0000 C   0  0  0  0  0  0  0  0  0  0  0  0
    9.0178    2.7942    0.0000 C   0  0  0  0  0  0  0  0  0  0  0  0
   10.2302    3.4942    0.0000 C   0  0  0  0  0  0  0  0  0  0  0  0
   11.4426    2.7942    0.0000 C   0  0  0  0  0  0  0  0  0  0  0  0
   12.6551    3.4942    0.0000 C   0  0  0  0  0  0  0  0  0  0  0  0
   13.8675    2.7942    0.0000 C   0  0  0  0  0  0  0  0  0  0  0  0
   15.0800    3.4942    0.0000 C   0  0  0  0  0  0  0  0  0  0  0  0
   16.2924    2.7942    0.0000 C   0  0  0  0  0  0  0  0  0  0  0  0
   17.5441    3.4942    0.0000 C   0  0  0  0  0  0  0  0  0  0  0  0
   19.7344    2.3295    0.0000 C   0  0  0  0  0  0  0  0  0  0  0  0
   21.7518    3.4942    0.0000 C   0  0  0  0  0  0  0  0  0  0  0  0
   23.7692    2.3295    0.0000 C   0  0  0  0  0  0  0  0  0  0  0  0
   23.7692    0.0000    0.0000 O   0  0  0  0  0  0  0  0  0  0  0  0
   25.7865    3.4942    0.0000 O   0  0  0  0  0  0  0  0  0  0  0  0
   26.6735    2.9821    0.0000 C   0  0  0  0  0  0  0  0  0  0  0  0
   27.3199    2.1876    0.0000 C   0  0  0  0  0  0  0  0  0  0  0  0
   28.2570    2.6011    0.0000 C   0  0  0  0  0  0  0  0  0  0  0  0
   29.2740    2.4794    0.0000 C   0  0  0  0  0  0  0  0  0  0  0  0
   28.6276    3.2740    0.0000 C   0  0  0  0  0  0  0  0  0  0  0  0
   27.6905    2.8606    0.0000 C   0  0  0  0  0  0  0  0  0  0  0  0
   28.2570    3.6254    0.0000 C   0  0  0  0  0  0  0  0  0  0  0  0
   28.6276    4.2982    0.0000 C   0  0  0  0  0  0  0  0  0  0  0  0
   26.6735    4.0063    0.0000 C   0  0  0  0  0  0  0  0  0  0  0  0
   27.5327    4.3496    0.0000 C   0  0  0  0  0  0  0  0  0  0  0  0
  1  2  1  0  0  0  0
  2  3  1  0  0  0  0
  3  4  1  0  0  0  0
  4  5  1  0  0  0  0
  5  6  1  0  0  0  0
  6  1  1  0  0  0  0
  3  7  1  0  0  0  0
  1  8  1  0  0  0  0
  7  9  1  0  0  0  0
  8  9  1  0  0  0  0
  5 10  1  0  0  0  0
 10  9  1  0  0  0  0
  5 11  1  0  0  0  0
 11 12  1  0  0  0  0
 12 13  1  0  0  0  0
 12 14  2  0  0  0  0
 13 15  1  0  0  0  0
 15 16  1  0  0  0  0
 16 17  1  0  0  0  0
 17 18  1  0  0  0  0
 18 19  1  0  0  0  0
 19 20  1  0  0  0  0
 20 21  1  0  0  0  0
 21 22  1  0  0  0  0
 22 23  1  0  0  0  0
 23 24  1  0  0  0  0
 24 25  1  0  0  0  0
 25 26  1  0  0  0  0
 26 27  2  0  0  0  0
 26 28  1  0  0  0  0
 28 29  1  0  0  0  0
 29 30  1  0  0  0  0
 30 31  1  0  0  0  0
 31 32  1  0  0  0  0
 32 33  1  0  0  0  0
 33 34  1  0  0  0  0
 34 29  1  0  0  0  0
 31 35  1  0  0  0  0
 33 36  1  0  0  0  0
 29 37  1  0  0  0  0
 35 38  1  0  0  0  0
 36 38  1  0  0  0  0
 37 38  1  0  0  0  0
M  END
> <Molecule Name>
786

> <CDD Number>
CDD-15734

> <Human_sEH_IC50_uM>
0.1

> <Mouse_sEH_IC50_uM>
0.05

$$$$

SketchEl molfile

 31 33  0  0  0  0  0  0  0  0999 V2000
    0.7000    2.2987    0.0000 C   0  0  0  0  0  0  0  0  0  0  0  0
    0.0000    1.0862    0.0000 C   0  0  0  0  0  0  0  0  0  0  0  0
    1.3461    1.4709    0.0000 C   0  0  0  0  0  0  0  0  0  0  0  0
    2.7004    1.0862    0.0000 C   0  0  0  0  0  0  0  0  0  0  0  0
    3.4006    2.2987    0.0000 C   0  0  0  0  0  0  0  0  0  0  0  0
    2.0543    1.9141    0.0000 C   0  0  0  0  0  0  0  0  0  0  0  0
    1.3461    2.8709    0.0000 C   0  0  0  0  0  0  0  0  0  0  0  0
    0.7000    3.6987    0.0000 C   0  0  0  0  0  0  0  0  0  0  0  0
    2.0461    4.0834    0.0000 C   0  0  0  0  0  0  0  0  0  0  0  0
    3.4006    3.6987    0.0000 C   0  0  0  0  0  0  0  0  0  0  0  0
    4.6130    1.5987    0.0000 N   0  0  0  0  0  0  0  0  0  0  0  0
    5.6029    2.1993    0.0000 C   0  0  0  0  0  0  0  0  0  0  0  0
    6.8154    1.4993    0.0000 N   0  0  0  0  0  0  0  0  0  0  0  0
    5.6029    3.5993    0.0000 O   0  0  0  0  0  0  0  0  0  0  0  0
    7.8053    2.1000    0.0000 C   0  0  0  0  0  0  0  0  0  0  0  0
    9.0178    1.4000    0.0000 C   0  0  0  0  0  0  0  0  0  0  0  0
   10.2302    2.1000    0.0000 C   0  0  0  0  0  0  0  0  0  0  0  0
   11.4426    1.4000    0.0000 C   0  0  0  0  0  0  0  0  0  0  0  0
   12.6551    2.1000    0.0000 C   0  0  0  0  0  0  0  0  0  0  0  0
   13.8675    1.4000    0.0000 C   0  0  0  0  0  0  0  0  0  0  0  0
   15.0799    2.1000    0.0000 C   0  0  0  0  0  0  0  0  0  0  0  0
   16.2924    1.4000    0.0000 C   0  0  0  0  0  0  0  0  0  0  0  0
   17.5048    2.1000    0.0000 C   0  0  0  0  0  0  0  0  0  0  0  0
   18.7173    1.4000    0.0000 C   0  0  0  0  0  0  0  0  0  0  0  0
   19.9297    2.1000    0.0000 C   0  0  0  0  0  0  0  0  0  0  0  0
   21.1421    1.4000    0.0000 C   0  0  0  0  0  0  0  0  0  0  0  0
   21.1421    0.0000    0.0000 O   0  0  0  0  0  0  0  0  0  0  0  0
   22.3546    2.1000    0.0000 O   0  0  0  0  0  0  0  0  0  0  0  0
   23.5670    1.4000    0.0000 C   0  0  0  0  0  0  0  0  0  0  0  0
   23.5670    0.0000    0.0000 C   0  0  0  0  0  0  0  0  0  0  0  0
   24.7794    2.1000    0.0000 C   0  0  0  0  0  0  0  0  0  0  0  0
  1  2  1  0  0  0  0
  2  3  1  0  0  0  0
  3  4  1  0  0  0  0
  4  5  1  0  0  0  0
  5  6  1  0  0  0  0
  6  1  1  0  0  0  0
  3  7  1  0  0  0  0
  1  8  1  0  0  0  0
  7  9  1  0  0  0  0
  8  9  1  0  0  0  0
  5 10  1  0  0  0  0
 10  9  1  0  0  0  0
  5 11  1  0  0  0  0
 11 12  1  0  0  0  0
 12 13  1  0  0  0  0
 12 14  2  0  0  0  0
 13 15  1  0  0  0  0
 15 16  1  0  0  0  0
 16 17  1  0  0  0  0
 17 18  1  0  0  0  0
 18 19  1  0  0  0  0
 19 20  1  0  0  0  0
 20 21  1  0  0  0  0
 21 22  1  0  0  0  0
 22 23  1  0  0  0  0
 23 24  1  0  0  0  0
 24 25  1  0  0  0  0
 25 26  1  0  0  0  0
 26 27  2  0  0  0  0
 26 28  1  0  0  0  0
 28 29  1  0  0  0  0
 29 30  1  0  0  0  0
 29 31  1  0  0  0  0
M  END
> <Molecule Name>
785

> <CDD Number>
CDD-15733

> <Human_sEH_IC50_uM>
0.1

> <Mouse_sEH_IC50_uM>
0.05

$$$$

SketchEl molfile

 30 32  0  0  0  0  0  0  0  0999 V2000
    0.7000    2.2987    0.0000 C   0  0  0  0  0  0  0  0  0  0  0  0
    0.0000    1.0862    0.0000 C   0  0  0  0  0  0  0  0  0  0  0  0
    1.3461    1.4709    0.0000 C   0  0  0  0  0  0  0  0  0  0  0  0
    2.7004    1.0862    0.0000 C   0  0  0  0  0  0  0  0  0  0  0  0
    3.4006    2.2987    0.0000 C   0  0  0  0  0  0  0  0  0  0  0  0
    2.0543    1.9141    0.0000 C   0  0  0  0  0  0  0  0  0  0  0  0
    1.3461    2.8709    0.0000 C   0  0  0  0  0  0  0  0  0  0  0  0
    0.7000    3.6987    0.0000 C   0  0  0  0  0  0  0  0  0  0  0  0
    2.0461    4.0834    0.0000 C   0  0  0  0  0  0  0  0  0  0  0  0
    3.4006    3.6987    0.0000 C   0  0  0  0  0  0  0  0  0  0  0  0
    4.6130    1.5987    0.0000 N   0  0  0  0  0  0  0  0  0  0  0  0
    5.6029    2.1993    0.0000 C   0  0  0  0  0  0  0  0  0  0  0  0
    6.8154    1.4993    0.0000 N   0  0  0  0  0  0  0  0  0  0  0  0
    5.6029    3.5993    0.0000 O   0  0  0  0  0  0  0  0  0  0  0  0
    7.8053    2.1000    0.0000 C   0  0  0  0  0  0  0  0  0  0  0  0
    9.0178    1.4000    0.0000 C   0  0  0  0  0  0  0  0  0  0  0  0
   10.2302    2.1000    0.0000 C   0  0  0  0  0  0  0  0  0  0  0  0
   11.4426    1.4000    0.0000 C   0  0  0  0  0  0  0  0  0  0  0  0
   12.6551    2.1000    0.0000 C   0  0  0  0  0  0  0  0  0  0  0  0
   13.8675    1.4000    0.0000 C   0  0  0  0  0  0  0  0  0  0  0  0
   15.0799    2.1000    0.0000 C   0  0  0  0  0  0  0  0  0  0  0  0
   16.2924    1.4000    0.0000 C   0  0  0  0  0  0  0  0  0  0  0  0
   17.5048    2.1000    0.0000 C   0  0  0  0  0  0  0  0  0  0  0  0
   18.7173    1.4000    0.0000 C   0  0  0  0  0  0  0  0  0  0  0  0
   19.9297    2.1000    0.0000 C   0  0  0  0  0  0  0  0  0  0  0  0
   21.1421    1.4000    0.0000 C   0  0  0  0  0  0  0  0  0  0  0  0
   21.1421    0.0000    0.0000 O   0  0  0  0  0  0  0  0  0  0  0  0
   22.3546    2.1000    0.0000 O   0  0  0  0  0  0  0  0  0  0  0  0
   23.5670    1.4000    0.0000 C   0  0  0  0  0  0  0  0  0  0  0  0
   24.7794    2.1000    0.0000 C   0  0  0  0  0  0  0  0  0  0  0  0
  1  2  1  0  0  0  0
  2  3  1  0  0  0  0
  3  4  1  0  0  0  0
  4  5  1  0  0  0  0
  5  6  1  0  0  0  0
  6  1  1  0  0  0  0
  3  7  1  0  0  0  0
  1  8  1  0  0  0  0
  7  9  1  0  0  0  0
  8  9  1  0  0  0  0
  5 10  1  0  0  0  0
 10  9  1  0  0  0  0
  5 11  1  0  0  0  0
 11 12  1  0  0  0  0
 12 13  1  0  0  0  0
 12 14  2  0  0  0  0
 13 15  1  0  0  0  0
 15 16  1  0  0  0  0
 16 17  1  0  0  0  0
 17 18  1  0  0  0  0
 18 19  1  0  0  0  0
 19 20  1  0  0  0  0
 20 21  1  0  0  0  0
 21 22  1  0  0  0  0
 22 23  1  0  0  0  0
 23 24  1  0  0  0  0
 24 25  1  0  0  0  0
 25 26  1  0  0  0  0
 26 27  2  0  0  0  0
 26 28  1  0  0  0  0
 28 29  1  0  0  0  0
 29 30  1  0  0  0  0
M  END
> <Molecule Name>
784

> <CDD Number>
CDD-15732

> <Human_sEH_IC50_uM>
0.1

> <Mouse_sEH_IC50_uM>
0.05

$$$$

SketchEl molfile

 31 33  0  0  0  0  0  0  0  0999 V2000
    0.7000    2.2987    0.0000 C   0  0  0  0  0  0  0  0  0  0  0  0
    0.0000    1.0862    0.0000 C   0  0  0  0  0  0  0  0  0  0  0  0
    1.3461    1.4709    0.0000 C   0  0  0  0  0  0  0  0  0  0  0  0
    2.7004    1.0862    0.0000 C   0  0  0  0  0  0  0  0  0  0  0  0
    3.4006    2.2987    0.0000 C   0  0  0  0  0  0  0  0  0  0  0  0
    2.0543    1.9141    0.0000 C   0  0  0  0  0  0  0  0  0  0  0  0
    1.3461    2.8709    0.0000 C   0  0  0  0  0  0  0  0  0  0  0  0
    0.7000    3.6987    0.0000 C   0  0  0  0  0  0  0  0  0  0  0  0
    2.0461    4.0834    0.0000 C   0  0  0  0  0  0  0  0  0  0  0  0
    3.4006    3.6987    0.0000 C   0  0  0  0  0  0  0  0  0  0  0  0
    4.6130    1.5987    0.0000 N   0  0  0  0  0  0  0  0  0  0  0  0
    5.6029    2.1993    0.0000 C   0  0  0  0  0  0  0  0  0  0  0  0
    6.8154    1.4993    0.0000 N   0  0  0  0  0  0  0  0  0  0  0  0
    5.6029    3.5993    0.0000 O   0  0  0  0  0  0  0  0  0  0  0  0
    7.8053    2.1000    0.0000 C   0  0  0  0  0  0  0  0  0  0  0  0
    9.0178    1.4000    0.0000 C   0  0  0  0  0  0  0  0  0  0  0  0
   10.2302    2.1000    0.0000 C   0  0  0  0  0  0  0  0  0  0  0  0
   11.4426    1.4000    0.0000 C   0  0  0  0  0  0  0  0  0  0  0  0
   12.6551    2.1000    0.0000 C   0  0  0  0  0  0  0  0  0  0  0  0
   13.8675    1.4000    0.0000 C   0  0  0  0  0  0  0  0  0  0  0  0
   15.0799    2.1000    0.0000 C   0  0  0  0  0  0  0  0  0  0  0  0
   16.2924    1.4000    0.0000 C   0  0  0  0  0  0  0  0  0  0  0  0
   17.5048    2.1000    0.0000 C   0  0  0  0  0  0  0  0  0  0  0  0
   18.7173    1.4000    0.0000 C   0  0  0  0  0  0  0  0  0  0  0  0
   19.9297    2.1000    0.0000 C   0  0  0  0  0  0  0  0  0  0  0  0
   21.1421    1.4000    0.0000 C   0  0  0  0  0  0  0  0  0  0  0  0
   21.1421    0.0000    0.0000 O   0  0  0  0  0  0  0  0  0  0  0  0
   22.3546    2.1000    0.0000 O   0  0  0  0  0  0  0  0  0  0  0  0
   23.5670    1.4000    0.0000 C   0  0  0  0  0  0  0  0  0  0  0  0
   24.7794    2.1000    0.0000 C   0  0  0  0  0  0  0  0  0  0  0  0
   25.9919    1.4000    0.0000 C   0  0  0  0  0  0  0  0  0  0  0  0
  1  2  1  0  0  0  0
  2  3  1  0  0  0  0
  3  4  1  0  0  0  0
  4  5  1  0  0  0  0
  5  6  1  0  0  0  0
  6  1  1  0  0  0  0
  3  7  1  0  0  0  0
  1  8  1  0  0  0  0
  7  9  1  0  0  0  0
  8  9  1  0  0  0  0
  5 10  1  0  0  0  0
 10  9  1  0  0  0  0
  5 11  1  0  0  0  0
 11 12  1  0  0  0  0
 12 13  1  0  0  0  0
 12 14  2  0  0  0  0
 13 15  1  0  0  0  0
 15 16  1  0  0  0  0
 16 17  1  0  0  0  0
 17 18  1  0  0  0  0
 18 19  1  0  0  0  0
 19 20  1  0  0  0  0
 20 21  1  0  0  0  0
 21 22  1  0  0  0  0
 22 23  1  0  0  0  0
 23 24  1  0  0  0  0
 24 25  1  0  0  0  0
 25 26  1  0  0  0  0
 26 27  2  0  0  0  0
 26 28  1  0  0  0  0
 28 29  1  0  0  0  0
 29 30  1  0  0  0  0
 30 31  1  0  0  0  0
M  END
> <Molecule Name>
783

> <CDD Number>
CDD-15731

> <Human_sEH_IC50_uM>
0.1

> <Mouse_sEH_IC50_uM>
0.05

$$$$

SketchEl molfile

 36 39  0  0  0  0  0  0  0  0999 V2000
    0.7000    2.2987    0.0000 C   0  0  0  0  0  0  0  0  0  0  0  0
    0.0000    1.0862    0.0000 C   0  0  0  0  0  0  0  0  0  0  0  0
    1.3461    1.4709    0.0000 C   0  0  0  0  0  0  0  0  0  0  0  0
    2.7004    1.0862    0.0000 C   0  0  0  0  0  0  0  0  0  0  0  0
    3.4006    2.2987    0.0000 C   0  0  0  0  0  0  0  0  0  0  0  0
    2.0543    1.9141    0.0000 C   0  0  0  0  0  0  0  0  0  0  0  0
    1.3461    2.8709    0.0000 C   0  0  0  0  0  0  0  0  0  0  0  0
    0.7000    3.6987    0.0000 C   0  0  0  0  0  0  0  0  0  0  0  0
    2.0461    4.0834    0.0000 C   0  0  0  0  0  0  0  0  0  0  0  0
    3.4006    3.6987    0.0000 C   0  0  0  0  0  0  0  0  0  0  0  0
    4.6130    1.5987    0.0000 N   0  0  0  0  0  0  0  0  0  0  0  0
    5.6029    2.1993    0.0000 C   0  0  0  0  0  0  0  0  0  0  0  0
    6.8154    1.4993    0.0000 N   0  0  0  0  0  0  0  0  0  0  0  0
    5.6029    3.5993    0.0000 O   0  0  0  0  0  0  0  0  0  0  0  0
    7.8053    2.1000    0.0000 C   0  0  0  0  0  0  0  0  0  0  0  0
    9.0178    1.4000    0.0000 C   0  0  0  0  0  0  0  0  0  0  0  0
   10.2302    2.1000    0.0000 C   0  0  0  0  0  0  0  0  0  0  0  0
   11.4426    1.4000    0.0000 C   0  0  0  0  0  0  0  0  0  0  0  0
   12.6551    2.1000    0.0000 C   0  0  0  0  0  0  0  0  0  0  0  0
   13.8675    1.4000    0.0000 C   0  0  0  0  0  0  0  0  0  0  0  0
   15.0799    2.1000    0.0000 C   0  0  0  0  0  0  0  0  0  0  0  0
   16.2924    1.4000    0.0000 C   0  0  0  0  0  0  0  0  0  0  0  0
   17.5048    2.1000    0.0000 C   0  0  0  0  0  0  0  0  0  0  0  0
   18.7173    1.4000    0.0000 C   0  0  0  0  0  0  0  0  0  0  0  0
   19.9297    2.1000    0.0000 C   0  0  0  0  0  0  0  0  0  0  0  0
   21.1421    1.4000    0.0000 C   0  0  0  0  0  0  0  0  0  0  0  0
   21.1421    0.0000    0.0000 O   0  0  0  0  0  0  0  0  0  0  0  0
   22.3546    2.1000    0.0000 O   0  0  0  0  0  0  0  0  0  0  0  0
   23.5670    1.4000    0.0000 C   0  0  0  0  0  0  0  0  0  0  0  0
   24.7794    2.1000    0.0000 C   0  0  0  0  0  0  0  0  0  0  0  0
   25.9919    1.4000    0.0000 C   0  0  0  0  0  0  0  0  0  0  0  0
   27.2043    2.1000    0.0000 C   0  0  0  0  0  0  0  0  0  0  0  0
   27.2043    3.5000    0.0000 C   0  0  0  0  0  0  0  0  0  0  0  0
   25.9919    4.2000    0.0000 C   0  0  0  0  0  0  0  0  0  0  0  0
   24.7794    3.5000    0.0000 C   0  0  0  0  0  0  0  0  0  0  0  0
   25.9919    0.0000    0.0000 Cl  0  0  0  0  0  0  0  0  0  0  0  0
  1  2  1  0  0  0  0
  2  3  1  0  0  0  0
  3  4  1  0  0  0  0
  4  5  1  0  0  0  0
  5  6  1  0  0  0  0
  6  1  1  0  0  0  0
  3  7  1  0  0  0  0
  1  8  1  0  0  0  0
  7  9  1  0  0  0  0
  8  9  1  0  0  0  0
  5 10  1  0  0  0  0
 10  9  1  0  0  0  0
  5 11  1  0  0  0  0
 11 12  1  0  0  0  0
 12 13  1  0  0  0  0
 12 14  2  0  0  0  0
 13 15  1  0  0  0  0
 15 16  1  0  0  0  0
 16 17  1  0  0  0  0
 17 18  1  0  0  0  0
 18 19  1  0  0  0  0
 19 20  1  0  0  0  0
 20 21  1  0  0  0  0
 21 22  1  0  0  0  0
 22 23  1  0  0  0  0
 23 24  1  0  0  0  0
 24 25  1  0  0  0  0
 25 26  1  0  0  0  0
 26 27  2  0  0  0  0
 26 28  1  0  0  0  0
 28 29  1  0  0  0  0
 29 30  1  0  0  0  0
 30 31  2  0  0  0  0
 31 32  1  0  0  0  0
 32 33  2  0  0  0  0
 33 34  1  0  0  0  0
 34 35  2  0  0  0  0
 35 30  1  0  0  0  0
 31 36  1  0  0  0  0
M  END
> <Molecule Name>
782

> <CDD Number>
CDD-15730

> <Human_sEH_IC50_uM>
0.29

> <Mouse_sEH_IC50_uM>
0.1

$$$$

SketchEl molfile

 31 33  0  0  0  0  0  0  0  0999 V2000
    0.7000    2.2987    0.0000 C   0  0  0  0  0  0  0  0  0  0  0  0
    0.0000    1.0862    0.0000 C   0  0  0  0  0  0  0  0  0  0  0  0
    1.3461    1.4709    0.0000 C   0  0  0  0  0  0  0  0  0  0  0  0
    2.7004    1.0862    0.0000 C   0  0  0  0  0  0  0  0  0  0  0  0
    3.4006    2.2987    0.0000 C   0  0  0  0  0  0  0  0  0  0  0  0
    2.0543    1.9141    0.0000 C   0  0  0  0  0  0  0  0  0  0  0  0
    1.3461    2.8709    0.0000 C   0  0  0  0  0  0  0  0  0  0  0  0
    0.7000    3.6987    0.0000 C   0  0  0  0  0  0  0  0  0  0  0  0
    2.0461    4.0834    0.0000 C   0  0  0  0  0  0  0  0  0  0  0  0
    3.4006    3.6987    0.0000 C   0  0  0  0  0  0  0  0  0  0  0  0
    4.6130    1.5987    0.0000 N   0  0  0  0  0  0  0  0  0  0  0  0
    5.6029    2.1993    0.0000 C   0  0  0  0  0  0  0  0  0  0  0  0
    6.8154    1.4993    0.0000 N   0  0  0  0  0  0  0  0  0  0  0  0
    5.6029    3.5993    0.0000 O   0  0  0  0  0  0  0  0  0  0  0  0
    7.8053    2.1000    0.0000 C   0  0  0  0  0  0  0  0  0  0  0  0
    9.0178    1.4000    0.0000 C   0  0  0  0  0  0  0  0  0  0  0  0
   10.2302    2.1000    0.0000 C   0  0  0  0  0  0  0  0  0  0  0  0
   11.4426    1.4000    0.0000 C   0  0  0  0  0  0  0  0  0  0  0  0
   12.6551    2.1000    0.0000 C   0  0  0  0  0  0  0  0  0  0  0  0
   13.8675    1.4000    0.0000 C   0  0  0  0  0  0  0  0  0  0  0  0
   15.0799    2.1000    0.0000 C   0  0  0  0  0  0  0  0  0  0  0  0
   16.2924    1.4000    0.0000 C   0  0  0  0  0  0  0  0  0  0  0  0
   17.5048    2.1000    0.0000 C   0  0  0  0  0  0  0  0  0  0  0  0
   18.7173    1.4000    0.0000 C   0  0  0  0  0  0  0  0  0  0  0  0
   19.9297    2.1000    0.0000 C   0  0  0  0  0  0  0  0  0  0  0  0
   21.1421    1.4000    0.0000 C   0  0  0  0  0  0  0  0  0  0  0  0
   21.1421    0.0000    0.0000 O   0  0  0  0  0  0  0  0  0  0  0  0
   22.3546    2.1000    0.0000 O   0  0  0  0  0  0  0  0  0  0  0  0
   23.5670    1.4000    0.0000 C   0  0  0  0  0  0  0  0  0  0  0  0
   24.7794    2.1000    0.0000 C   0  0  0  0  0  0  0  0  0  0  0  0
   25.9919    1.4000    0.0000 C   0  0  0  0  0  0  0  0  0  0  0  0
  1  2  1  0  0  0  0
  2  3  1  0  0  0  0
  3  4  1  0  0  0  0
  4  5  1  0  0  0  0
  5  6  1  0  0  0  0
  6  1  1  0  0  0  0
  3  7  1  0  0  0  0
  1  8  1  0  0  0  0
  7  9  1  0  0  0  0
  8  9  1  0  0  0  0
  5 10  1  0  0  0  0
 10  9  1  0  0  0  0
  5 11  1  0  0  0  0
 11 12  1  0  0  0  0
 12 13  1  0  0  0  0
 12 14  2  0  0  0  0
 13 15  1  0  0  0  0
 15 16  1  0  0  0  0
 16 17  1  0  0  0  0
 17 18  1  0  0  0  0
 18 19  1  0  0  0  0
 19 20  1  0  0  0  0
 20 21  1  0  0  0  0
 21 22  1  0  0  0  0
 22 23  1  0  0  0  0
 23 24  1  0  0  0  0
 24 25  1  0  0  0  0
 25 26  1  0  0  0  0
 26 27  2  0  0  0  0
 26 28  1  0  0  0  0
 28 29  1  0  0  0  0
 29 30  1  0  0  0  0
 30 31  2  0  0  0  0
M  END
> <Molecule Name>
781

> <CDD Number>
CDD-15729

> <Human_sEH_IC50_uM>
0.1

> <Mouse_sEH_IC50_uM>
0.05

$$$$

SketchEl molfile

 29 31  0  0  0  0  0  0  0  0999 V2000
    0.7000    2.2987    0.0000 C   0  0  0  0  0  0  0  0  0  0  0  0
    0.0000    1.0862    0.0000 C   0  0  0  0  0  0  0  0  0  0  0  0
    1.3461    1.4709    0.0000 C   0  0  0  0  0  0  0  0  0  0  0  0
    2.7004    1.0862    0.0000 C   0  0  0  0  0  0  0  0  0  0  0  0
    3.4006    2.2987    0.0000 C   0  0  0  0  0  0  0  0  0  0  0  0
    2.0543    1.9141    0.0000 C   0  0  0  0  0  0  0  0  0  0  0  0
    1.3461    2.8709    0.0000 C   0  0  0  0  0  0  0  0  0  0  0  0
    0.7000    3.6987    0.0000 C   0  0  0  0  0  0  0  0  0  0  0  0
    2.0461    4.0834    0.0000 C   0  0  0  0  0  0  0  0  0  0  0  0
    3.4006    3.6987    0.0000 C   0  0  0  0  0  0  0  0  0  0  0  0
    4.6130    1.5987    0.0000 N   0  0  0  0  0  0  0  0  0  0  0  0
    5.6029    2.1993    0.0000 C   0  0  0  0  0  0  0  0  0  0  0  0
    6.8154    1.4993    0.0000 N   0  0  0  0  0  0  0  0  0  0  0  0
    5.6029    3.5993    0.0000 O   0  0  0  0  0  0  0  0  0  0  0  0
    7.8053    2.1000    0.0000 C   0  0  0  0  0  0  0  0  0  0  0  0
    9.0178    1.4000    0.0000 C   0  0  0  0  0  0  0  0  0  0  0  0
   10.2302    2.1000    0.0000 C   0  0  0  0  0  0  0  0  0  0  0  0
   11.4426    1.4000    0.0000 C   0  0  0  0  0  0  0  0  0  0  0  0
   12.6551    2.1000    0.0000 C   0  0  0  0  0  0  0  0  0  0  0  0
   13.8675    1.4000    0.0000 C   0  0  0  0  0  0  0  0  0  0  0  0
   15.0799    2.1000    0.0000 C   0  0  0  0  0  0  0  0  0  0  0  0
   16.2924    1.4000    0.0000 C   0  0  0  0  0  0  0  0  0  0  0  0
   17.5048    2.1000    0.0000 C   0  0  0  0  0  0  0  0  0  0  0  0
   18.7173    1.4000    0.0000 C   0  0  0  0  0  0  0  0  0  0  0  0
   19.9297    2.1000    0.0000 C   0  0  0  0  0  0  0  0  0  0  0  0
   21.1421    1.4000    0.0000 C   0  0  0  0  0  0  0  0  0  0  0  0
   21.1421    0.0000    0.0000 O   0  0  0  0  0  0  0  0  0  0  0  0
   22.3546    2.1000    0.0000 O   0  0  0  0  0  0  0  0  0  0  0  0
   23.5670    1.4000    0.0000 C   0  0  0  0  0  0  0  0  0  0  0  0
  1  2  1  0  0  0  0
  2  3  1  0  0  0  0
  3  4  1  0  0  0  0
  4  5  1  0  0  0  0
  5  6  1  0  0  0  0
  6  1  1  0  0  0  0
  3  7  1  0  0  0  0
  1  8  1  0  0  0  0
  7  9  1  0  0  0  0
  8  9  1  0  0  0  0
  5 10  1  0  0  0  0
 10  9  1  0  0  0  0
  5 11  1  0  0  0  0
 11 12  1  0  0  0  0
 12 13  1  0  0  0  0
 12 14  2  0  0  0  0
 13 15  1  0  0  0  0
 15 16  1  0  0  0  0
 16 17  1  0  0  0  0
 17 18  1  0  0  0  0
 18 19  1  0  0  0  0
 19 20  1  0  0  0  0
 20 21  1  0  0  0  0
 21 22  1  0  0  0  0
 22 23  1  0  0  0  0
 23 24  1  0  0  0  0
 24 25  1  0  0  0  0
 25 26  1  0  0  0  0
 26 27  2  0  0  0  0
 26 28  1  0  0  0  0
 28 29  1  0  0  0  0
M  END
> <Molecule Name>
780

> <CDD Number>
CDD-15728

> <Human_sEH_IC50_uM>
0.1

> <Mouse_sEH_IC50_uM>
0.05

$$$$

SketchEl molfile

 14 14  0  0  0  0  0  0  0  0999 V2000
    0.0000    0.1812    0.0000 C   0  0  0  0  0  0  0  0  0  0  0  0
    1.2124    0.8812    0.0000 C   0  0  0  0  0  0  0  0  0  0  0  0
    1.2124    2.2812    0.0000 C   0  0  0  0  0  0  0  0  0  0  0  0
    2.4249    0.1812    0.0000 N   0  0  0  0  0  0  0  0  0  0  0  0
    3.4148    0.7819    0.0000 C   0  0  0  0  0  0  0  0  0  0  0  0
    3.4148    2.1819    0.0000 N   0  0  0  0  0  0  0  0  0  0  0  0
    4.6273    0.0819    0.0000 N   0  0  0  0  0  0  0  0  0  0  0  0
    5.8397    0.7819    0.0000 C   0  0  0  0  0  0  0  0  0  0  0  0
    7.0521    0.0819    0.0000 N   0  0  0  0  0  0  0  0  0  0  0  0
    4.4546    2.7822    0.0000 C   0  0  0  0  0  0  0  0  0  0  0  0
    5.8397    1.9825    0.0000 N   0  0  0  0  0  0  0  0  0  0  0  0
    4.4546    3.9829    0.0000 O   0  0  0  0  0  0  0  0  0  0  0  0
    7.9011    0.6003    0.0000 C   0  0  0  0  0  0  0  0  0  0  0  0
    8.9410    0.0000    0.0000 C   0  0  0  0  0  0  0  0  0  0  0  0
  1  2  1  0  0  0  0
  2  3  1  0  0  0  0
  2  4  1  0  0  0  0
  4  5  1  0  0  0  0
  5  6  1  0  0  0  0
  5  7  2  0  0  0  0
  7  8  1  0  0  0  0
  8  9  1  0  0  0  0
  6 10  2  0  0  0  0
  8 11  2  0  0  0  0
 11 10  1  0  0  0  0
 10 12  1  0  0  0  0
  9 13  1  0  0  0  0
 13 14  1  0  0  0  0
M  END
> <Molecule Name>
776

> <CDD Number>
CDD-15727

> <Human_sEH_IC50_uM>
100.0

> <Mouse_sEH_IC50_uM>
100.0

$$$$

SketchEl molfile

 18 18  0  0  0  0  0  0  0  0999 V2000
    0.0000    0.7431    0.0000 C   0  0  0  0  0  0  0  0  0  0  0  0
    1.2124    1.4431    0.0000 C   0  0  0  0  0  0  0  0  0  0  0  0
    1.2124    2.8431    0.0000 C   0  0  0  0  0  0  0  0  0  0  0  0
    2.4249    0.7431    0.0000 N   0  0  0  0  0  0  0  0  0  0  0  0
    3.4148    1.3438    0.0000 C   0  0  0  0  0  0  0  0  0  0  0  0
    3.4148    2.7438    0.0000 N   0  0  0  0  0  0  0  0  0  0  0  0
    4.6273    0.6438    0.0000 N   0  0  0  0  0  0  0  0  0  0  0  0
    5.8397    1.3438    0.0000 C   0  0  0  0  0  0  0  0  0  0  0  0
    7.0521    0.6438    0.0000 N   0  0  0  0  0  0  0  0  0  0  0  0
    8.9868    1.8010    0.0000 C   0  0  0  0  0  0  0  0  0  0  0  0
   10.0266    1.2007    0.0000 C   0  0  0  0  0  0  0  0  0  0  0  0
   11.0665    1.8010    0.0000 C   0  0  0  0  0  0  0  0  0  0  0  0
   12.1063    1.2007    0.0000 C   0  0  0  0  0  0  0  0  0  0  0  0
   13.1461    1.8010    0.0000 O   0  0  0  0  0  0  0  0  0  0  0  0
   12.1063    0.0000    0.0000 O   0  0  0  0  0  0  0  0  0  0  0  0
    4.4546    3.3441    0.0000 C   0  0  0  0  0  0  0  0  0  0  0  0
    5.8397    2.5445    0.0000 N   0  0  0  0  0  0  0  0  0  0  0  0
    4.4546    4.5448    0.0000 O   0  0  0  0  0  0  0  0  0  0  0  0
  1  2  1  0  0  0  0
  2  3  1  0  0  0  0
  2  4  1  0  0  0  0
  4  5  1  0  0  0  0
  5  6  1  0  0  0  0
  5  7  2  0  0  0  0
  7  8  1  0  0  0  0
  8  9  1  0  0  0  0
 10 11  1  0  0  0  0
 11 12  1  0  0  0  0
 12 13  1  0  0  0  0
 13 14  1  0  0  0  0
 13 15  2  0  0  0  0
  9 10  1  0  0  0  0
  6 16  2  0  0  0  0
  8 17  2  0  0  0  0
 17 16  1  0  0  0  0
 16 18  1  0  0  0  0
M  END
> <Molecule Name>
775

> <CDD Number>
CDD-15726

> <Human_sEH_IC50_uM>
100.0

> <Mouse_sEH_IC50_uM>
100.0

$$$$

SketchEl molfile

 17 17  0  0  0  0  0  0  0  0999 V2000
    0.0000    2.2987    0.0000 C   0  0  0  0  0  0  0  0  0  0  0  0
    1.2124    1.5987    0.0000 C   0  0  0  0  0  0  0  0  0  0  0  0
    2.4249    2.2987    0.0000 C   0  0  0  0  0  0  0  0  0  0  0  0
    2.4249    3.6987    0.0000 C   0  0  0  0  0  0  0  0  0  0  0  0
    1.2124    4.3987    0.0000 C   0  0  0  0  0  0  0  0  0  0  0  0
    0.0000    3.6987    0.0000 C   0  0  0  0  0  0  0  0  0  0  0  0
    3.6373    1.5987    0.0000 N   0  0  0  0  0  0  0  0  0  0  0  0
    4.6273    2.1993    0.0000 C   0  0  0  0  0  0  0  0  0  0  0  0
    5.8397    1.4993    0.0000 N   0  0  0  0  0  0  0  0  0  0  0  0
    4.6273    3.5993    0.0000 O   0  0  0  0  0  0  0  0  0  0  0  0
    6.8296    2.1000    0.0000 C   0  0  0  0  0  0  0  0  0  0  0  0
    8.0421    1.4000    0.0000 C   0  0  0  0  0  0  0  0  0  0  0  0
    9.2545    2.1000    0.0000 C   0  0  0  0  0  0  0  0  0  0  0  0
   10.4669    1.4000    0.0000 C   0  0  0  0  0  0  0  0  0  0  0  0
   10.4669    0.0000    0.0000 O   0  0  0  0  0  0  0  0  0  0  0  0
   11.6794    2.1000    0.0000 O   0  0  0  0  0  0  0  0  0  0  0  0
   12.8918    1.4000    0.0000 C   0  0  0  0  0  0  0  0  0  0  0  0
  1  2  1  0  0  0  0
  2  3  1  0  0  0  0
  3  4  1  0  0  0  0
  4  5  1  0  0  0  0
  5  6  1  0  0  0  0
  6  1  1  0  0  0  0
  3  7  1  0  0  0  0
  7  8  1  0  0  0  0
  8  9  1  0  0  0  0
  8 10  2  0  0  0  0
  9 11  1  0  0  0  0
 11 12  1  0  0  0  0
 12 13  1  0  0  0  0
 13 14  1  0  0  0  0
 14 15  2  0  0  0  0
 14 16  1  0  0  0  0
 16 17  1  0  0  0  0
M  END
> <Molecule Name>
774

> <CDD Number>
CDD-15725

> <Human_sEH_IC50_uM>
6.2

> <Mouse_sEH_IC50_uM>
0.33

$$$$

SketchEl molfile

 18 18  0  0  0  0  0  0  0  0999 V2000
    0.0000    1.5987    0.0000 Cl  0  0  0  0  0  0  0  0  0  0  0  0
    1.2124    2.2987    0.0000 C   0  0  0  0  0  0  0  0  0  0  0  0
    2.4249    1.5987    0.0000 C   0  0  0  0  0  0  0  0  0  0  0  0
    3.6373    2.2987    0.0000 C   0  0  0  0  0  0  0  0  0  0  0  0
    3.6373    3.6987    0.0000 C   0  0  0  0  0  0  0  0  0  0  0  0
    2.4249    4.3987    0.0000 C   0  0  0  0  0  0  0  0  0  0  0  0
    1.2124    3.6987    0.0000 C   0  0  0  0  0  0  0  0  0  0  0  0
    4.8497    1.5987    0.0000 N   0  0  0  0  0  0  0  0  0  0  0  0
    5.8397    2.1993    0.0000 C   0  0  0  0  0  0  0  0  0  0  0  0
    7.0521    1.4993    0.0000 N   0  0  0  0  0  0  0  0  0  0  0  0
    5.8397    3.5993    0.0000 O   0  0  0  0  0  0  0  0  0  0  0  0
    8.0421    2.1000    0.0000 C   0  0  0  0  0  0  0  0  0  0  0  0
    9.2545    1.4000    0.0000 C   0  0  0  0  0  0  0  0  0  0  0  0
   10.4669    2.1000    0.0000 C   0  0  0  0  0  0  0  0  0  0  0  0
   11.6794    1.4000    0.0000 C   0  0  0  0  0  0  0  0  0  0  0  0
   12.8918    2.1000    0.0000 O   0  0  0  0  0  0  0  0  0  0  0  0
   11.6794    0.0000    0.0000 O   0  0  0  0  0  0  0  0  0  0  0  0
   14.1043    1.4000    0.0000 C   0  0  0  0  0  0  0  0  0  0  0  0
  1  2  1  0  0  0  0
  2  3  2  0  0  0  0
  3  4  1  0  0  0  0
  4  5  2  0  0  0  0
  5  6  1  0  0  0  0
  6  7  2  0  0  0  0
  7  2  1  0  0  0  0
  4  8  1  0  0  0  0
  8  9  1  0  0  0  0
  9 10  1  0  0  0  0
  9 11  2  0  0  0  0
 10 12  1  0  0  0  0
 12 13  1  0  0  0  0
 13 14  1  0  0  0  0
 14 15  1  0  0  0  0
 15 16  1  0  0  0  0
 15 17  2  0  0  0  0
 16 18  1  0  0  0  0
M  END
> <Molecule Name>
773

> <CDD Number>
CDD-15724

> <Human_sEH_IC50_uM>
17.7

> <Mouse_sEH_IC50_uM>
36.0

$$$$

SketchEl molfile

 21 21  0  0  0  0  0  0  0  0999 V2000
    0.0000    2.2987    0.0000 C   0  0  0  0  0  0  0  0  0  0  0  0
    1.2124    1.5987    0.0000 C   0  0  0  0  0  0  0  0  0  0  0  0
    2.4249    2.2987    0.0000 C   0  0  0  0  0  0  0  0  0  0  0  0
    2.4249    3.6987    0.0000 C   0  0  0  0  0  0  0  0  0  0  0  0
    1.2124    4.3987    0.0000 C   0  0  0  0  0  0  0  0  0  0  0  0
    0.0000    3.6987    0.0000 C   0  0  0  0  0  0  0  0  0  0  0  0
    3.6373    1.5987    0.0000 N   0  0  0  0  0  0  0  0  0  0  0  0
    4.6273    2.1993    0.0000 C   0  0  0  0  0  0  0  0  0  0  0  0
    5.8397    1.4993    0.0000 N   0  0  0  0  0  0  0  0  0  0  0  0
    4.6273    3.5993    0.0000 O   0  0  0  0  0  0  0  0  0  0  0  0
    6.8296    2.1000    0.0000 C   0  0  0  0  0  0  0  0  0  0  0  0
    8.0421    1.4000    0.0000 C   0  0  0  0  0  0  0  0  0  0  0  0
    9.2545    2.1000    0.0000 C   0  0  0  0  0  0  0  0  0  0  0  0
   10.4669    1.4000    0.0000 C   0  0  0  0  0  0  0  0  0  0  0  0
   10.4669    0.0000    0.0000 O   0  0  0  0  0  0  0  0  0  0  0  0
   11.6794    2.1000    0.0000 O   0  0  0  0  0  0  0  0  0  0  0  0
   12.8918    1.4000    0.0000 C   0  0  0  0  0  0  0  0  0  0  0  0
   14.1043    2.1000    0.0000 C   0  0  0  0  0  0  0  0  0  0  0  0
   15.3167    1.4000    0.0000 C   0  0  0  0  0  0  0  0  0  0  0  0
   16.5291    2.1000    0.0000 C   0  0  0  0  0  0  0  0  0  0  0  0
   17.7416    1.4000    0.0000 C   0  0  0  0  0  0  0  0  0  0  0  0
  1  2  1  0  0  0  0
  2  3  1  0  0  0  0
  3  4  1  0  0  0  0
  4  5  1  0  0  0  0
  5  6  1  0  0  0  0
  6  1  1  0  0  0  0
  3  7  1  0  0  0  0
  7  8  1  0  0  0  0
  8  9  1  0  0  0  0
  8 10  2  0  0  0  0
  9 11  1  0  0  0  0
 11 12  1  0  0  0  0
 12 13  1  0  0  0  0
 13 14  1  0  0  0  0
 14 15  2  0  0  0  0
 14 16  1  0  0  0  0
 16 17  1  0  0  0  0
 17 18  1  0  0  0  0
 18 19  1  0  0  0  0
 19 20  1  0  0  0  0
 20 21  1  0  0  0  0
M  END
> <Molecule Name>
772

> <CDD Number>
CDD-15723

> <Human_sEH_IC50_uM>
1.02

> <Mouse_sEH_IC50_uM>
0.05

$$$$

SketchEl molfile

 21 21  0  0  0  0  0  0  0  0999 V2000
    1.2124    0.7993    0.0000 C   0  0  0  0  0  0  0  0  0  0  0  0
    2.4249    0.0993    0.0000 C   0  0  0  0  0  0  0  0  0  0  0  0
    3.6373    0.7993    0.0000 C   0  0  0  0  0  0  0  0  0  0  0  0
    3.6373    2.1993    0.0000 C   0  0  0  0  0  0  0  0  0  0  0  0
    2.4249    2.8993    0.0000 C   0  0  0  0  0  0  0  0  0  0  0  0
    1.2124    2.1993    0.0000 C   0  0  0  0  0  0  0  0  0  0  0  0
    4.8497    0.0993    0.0000 N   0  0  0  0  0  0  0  0  0  0  0  0
    0.0000    0.0993    0.0000 Cl  0  0  0  0  0  0  0  0  0  0  0  0
    5.8397    0.7000    0.0000 C   0  0  0  0  0  0  0  0  0  0  0  0
    7.0521    0.0000    0.0000 N   0  0  0  0  0  0  0  0  0  0  0  0
    5.8397    2.1000    0.0000 O   0  0  0  0  0  0  0  0  0  0  0  0
    8.6009    0.7000    0.0000 C   0  0  0  0  0  0  0  0  0  0  0  0
    9.8133    0.0000    0.0000 C   0  0  0  0  0  0  0  0  0  0  0  0
   11.0257    0.7000    0.0000 C   0  0  0  0  0  0  0  0  0  0  0  0
   12.2382    0.0000    0.0000 C   0  0  0  0  0  0  0  0  0  0  0  0
   13.4506    0.7000    0.0000 C   0  0  0  0  0  0  0  0  0  0  0  0
   14.6630    0.0000    0.0000 C   0  0  0  0  0  0  0  0  0  0  0  0
   15.8755    0.7000    0.0000 C   0  0  0  0  0  0  0  0  0  0  0  0
   17.0879    0.0000    0.0000 C   0  0  0  0  0  0  0  0  0  0  0  0
   18.3003    0.7000    0.0000 C   0  0  0  0  0  0  0  0  0  0  0  0
   19.5128    0.0000    0.0000 C   0  0  0  0  0  0  0  0  0  0  0  0
  1  2  2  0  0  0  0
  2  3  1  0  0  0  0
  3  4  2  0  0  0  0
  4  5  1  0  0  0  0
  5  6  2  0  0  0  0
  6  1  1  0  0  0  0
  3  7  1  0  0  0  0
  1  8  1  0  0  0  0
  7  9  1  0  0  0  0
  9 10  1  0  0  0  0
  9 11  2  0  0  0  0
 10 12  1  0  0  0  0
 12 13  1  0  0  0  0
 13 14  1  0  0  0  0
 14 15  1  0  0  0  0
 15 16  1  0  0  0  0
 16 17  1  0  0  0  0
 17 18  1  0  0  0  0
 18 19  1  0  0  0  0
 19 20  1  0  0  0  0
 20 21  1  0  0  0  0
M  END
> <Molecule Name>
771

> <CDD Number>
CDD-15722

> <Human_sEH_IC50_uM>
0.59

> <Mouse_sEH_IC50_uM>
0.07

$$$$

SketchEl molfile

 21 21  0  0  0  0  0  0  0  0999 V2000
    1.2124    0.7993    0.0000 C   0  0  0  0  0  0  0  0  0  0  0  0
    2.4249    0.0993    0.0000 C   0  0  0  0  0  0  0  0  0  0  0  0
    3.6373    0.7993    0.0000 C   0  0  0  0  0  0  0  0  0  0  0  0
    3.6373    2.1993    0.0000 C   0  0  0  0  0  0  0  0  0  0  0  0
    2.4249    2.8993    0.0000 C   0  0  0  0  0  0  0  0  0  0  0  0
    1.2124    2.1993    0.0000 C   0  0  0  0  0  0  0  0  0  0  0  0
    4.8497    0.0993    0.0000 N   0  0  0  0  0  0  0  0  0  0  0  0
    0.0000    0.0993    0.0000 Cl  0  0  0  0  0  0  0  0  0  0  0  0
    5.8397    0.7000    0.0000 C   0  0  0  0  0  0  0  0  0  0  0  0
    7.0521    0.0000    0.0000 N   0  0  0  0  0  0  0  0  0  0  0  0
    5.8397    2.1000    0.0000 O   0  0  0  0  0  0  0  0  0  0  0  0
    8.6009    0.7000    0.0000 C   0  0  0  0  0  0  0  0  0  0  0  0
    9.8133    0.0000    0.0000 C   0  0  0  0  0  0  0  0  0  0  0  0
   11.0257    0.7000    0.0000 C   0  0  0  0  0  0  0  0  0  0  0  0
   12.2382    0.0000    0.0000 C   0  0  0  0  0  0  0  0  0  0  0  0
   13.4506    0.7000    0.0000 C   0  0  0  0  0  0  0  0  0  0  0  0
   14.6630    0.0000    0.0000 C   0  0  0  0  0  0  0  0  0  0  0  0
   15.8755    0.7000    0.0000 C   0  0  0  0  0  0  0  0  0  0  0  0
   17.0879    0.0000    0.0000 C   0  0  0  0  0  0  0  0  0  0  0  0
   18.3003    0.7000    0.0000 C   0  0  0  0  0  0  0  0  0  0  0  0
   19.5128    0.0000    0.0000 C   0  0  0  0  0  0  0  0  0  0  0  0
  1  2  2  0  0  0  0
  2  3  1  0  0  0  0
  3  4  2  0  0  0  0
  4  5  1  0  0  0  0
  5  6  2  0  0  0  0
  6  1  1  0  0  0  0
  3  7  1  0  0  0  0
  1  8  1  0  0  0  0
  7  9  1  0  0  0  0
  9 10  1  0  0  0  0
  9 11  2  0  0  0  0
 10 12  1  0  0  0  0
 12 13  1  0  0  0  0
 13 14  1  0  0  0  0
 14 15  1  0  0  0  0
 15 16  1  0  0  0  0
 16 17  1  0  0  0  0
 17 18  1  0  0  0  0
 18 19  1  0  0  0  0
 19 20  1  0  0  0  0
 20 21  1  0  0  0  0
M  END
> <Molecule Name>
771

> <CDD Number>
CDD-15722

> <Human_sEH_IC50_uM>
0.3

> <Mouse_sEH_IC50_uM>
0.12

$$$$

SketchEl molfile

 21 21  0  0  0  0  0  0  0  0999 V2000
    1.2124    2.1000    0.0000 C   0  0  0  0  0  0  0  0  0  0  0  0
    2.4249    1.4000    0.0000 C   0  0  0  0  0  0  0  0  0  0  0  0
    3.6373    2.1000    0.0000 C   0  0  0  0  0  0  0  0  0  0  0  0
    3.6373    3.5000    0.0000 C   0  0  0  0  0  0  0  0  0  0  0  0
    2.4249    4.2000    0.0000 C   0  0  0  0  0  0  0  0  0  0  0  0
    1.2124    3.5000    0.0000 C   0  0  0  0  0  0  0  0  0  0  0  0
    4.8497    1.4000    0.0000 N   0  0  0  0  0  0  0  0  0  0  0  0
    0.0000    1.4000    0.0000 Cl  0  0  0  0  0  0  0  0  0  0  0  0
    5.8397    2.0007    0.0000 C   0  0  0  0  0  0  0  0  0  0  0  0
    7.0521    1.3007    0.0000 N   0  0  0  0  0  0  0  0  0  0  0  0
    5.8397    3.4007    0.0000 O   0  0  0  0  0  0  0  0  0  0  0  0
    8.6009    2.0007    0.0000 C   0  0  0  0  0  0  0  0  0  0  0  0
    9.8133    1.3007    0.0000 C   0  0  0  0  0  0  0  0  0  0  0  0
   11.0257    2.0007    0.0000 N   0  0  0  0  0  0  0  0  0  0  0  0
   12.0157    1.4000    0.0000 C   0  0  0  0  0  0  0  0  0  0  0  0
   13.2281    2.1000    0.0000 O   0  0  0  0  0  0  0  0  0  0  0  0
   12.0157    0.0000    0.0000 O   0  0  0  0  0  0  0  0  0  0  0  0
   14.4405    1.4000    0.0000 C   0  0  0  0  0  0  0  0  0  0  0  0
   15.6530    2.1000    0.0000 C   0  0  0  0  0  0  0  0  0  0  0  0
   15.6530    0.7000    0.0000 C   0  0  0  0  0  0  0  0  0  0  0  0
   14.8029    0.0477    0.0000 C   0  0  0  0  0  0  0  0  0  0  0  0
  1  2  2  0  0  0  0
  2  3  1  0  0  0  0
  3  4  2  0  0  0  0
  4  5  1  0  0  0  0
  5  6  2  0  0  0  0
  6  1  1  0  0  0  0
  3  7  1  0  0  0  0
  1  8  1  0  0  0  0
  7  9  1  0  0  0  0
  9 10  1  0  0  0  0
  9 11  2  0  0  0  0
 10 12  1  0  0  0  0
 12 13  1  0  0  0  0
 13 14  1  0  0  0  0
 14 15  1  0  0  0  0
 15 16  1  0  0  0  0
 15 17  2  0  0  0  0
 16 18  1  0  0  0  0
 18 19  1  0  0  0  0
 18 20  1  0  0  0  0
 18 21  1  0  0  0  0
M  END
> <Molecule Name>
769

> <CDD Number>
CDD-15721

> <Human_sEH_IC50_uM>
100.0

> <Mouse_sEH_IC50_uM>
9.8

$$$$

SketchEl molfile

 22 22  0  0  0  0  0  0  0  0999 V2000
    1.2124    2.1993    0.0000 C   0  0  0  0  0  0  0  0  0  0  0  0
    2.4249    1.4993    0.0000 C   0  0  0  0  0  0  0  0  0  0  0  0
    3.6373    2.1993    0.0000 C   0  0  0  0  0  0  0  0  0  0  0  0
    3.6373    3.5993    0.0000 C   0  0  0  0  0  0  0  0  0  0  0  0
    2.4249    4.2993    0.0000 C   0  0  0  0  0  0  0  0  0  0  0  0
    1.2124    3.5993    0.0000 C   0  0  0  0  0  0  0  0  0  0  0  0
    4.8497    1.4993    0.0000 N   0  0  0  0  0  0  0  0  0  0  0  0
    0.0000    1.4993    0.0000 Cl  0  0  0  0  0  0  0  0  0  0  0  0
    5.8397    2.1000    0.0000 C   0  0  0  0  0  0  0  0  0  0  0  0
    7.0521    1.4000    0.0000 N   0  0  0  0  0  0  0  0  0  0  0  0
    5.8397    3.5000    0.0000 O   0  0  0  0  0  0  0  0  0  0  0  0
    8.6009    2.1000    0.0000 C   0  0  0  0  0  0  0  0  0  0  0  0
    9.8133    1.4000    0.0000 C   0  0  0  0  0  0  0  0  0  0  0  0
   11.0257    2.1000    0.0000 C   0  0  0  0  0  0  0  0  0  0  0  0
   12.2382    1.4000    0.0000 C   0  0  0  0  0  0  0  0  0  0  0  0
   12.2382    0.0000    0.0000 O   0  0  0  0  0  0  0  0  0  0  0  0
   13.4506    2.1000    0.0000 N   0  0  0  0  0  0  0  0  0  0  0  0
   14.4405    1.4993    0.0000 C   0  0  0  0  0  0  0  0  0  0  0  0
   15.6530    2.1993    0.0000 C   0  0  0  0  0  0  0  0  0  0  0  0
   16.8654    1.4993    0.0000 C   0  0  0  0  0  0  0  0  0  0  0  0
   18.0779    2.1993    0.0000 C   0  0  0  0  0  0  0  0  0  0  0  0
   19.2903    1.4993    0.0000 C   0  0  0  0  0  0  0  0  0  0  0  0
  1  2  2  0  0  0  0
  2  3  1  0  0  0  0
  3  4  2  0  0  0  0
  4  5  1  0  0  0  0
  5  6  2  0  0  0  0
  6  1  1  0  0  0  0
  3  7  1  0  0  0  0
  1  8  1  0  0  0  0
  7  9  1  0  0  0  0
  9 10  1  0  0  0  0
  9 11  2  0  0  0  0
 10 12  1  0  0  0  0
 12 13  1  0  0  0  0
 13 14  1  0  0  0  0
 14 15  1  0  0  0  0
 15 16  2  0  0  0  0
 15 17  1  0  0  0  0
 17 18  1  0  0  0  0
 18 19  1  0  0  0  0
 19 20  1  0  0  0  0
 20 21  1  0  0  0  0
 21 22  1  0  0  0  0
M  END
> <Molecule Name>
768

> <CDD Number>
CDD-15720

> <Human_sEH_IC50_uM>
32.0

> <Mouse_sEH_IC50_uM>
7.2

$$$$

SketchEl molfile

 22 22  0  0  0  0  0  0  0  0999 V2000
    1.2124    2.1993    0.0000 C   0  0  0  0  0  0  0  0  0  0  0  0
    2.4249    1.4993    0.0000 C   0  0  0  0  0  0  0  0  0  0  0  0
    3.6373    2.1993    0.0000 C   0  0  0  0  0  0  0  0  0  0  0  0
    3.6373    3.5993    0.0000 C   0  0  0  0  0  0  0  0  0  0  0  0
    2.4249    4.2993    0.0000 C   0  0  0  0  0  0  0  0  0  0  0  0
    1.2124    3.5993    0.0000 C   0  0  0  0  0  0  0  0  0  0  0  0
    4.8497    1.4993    0.0000 N   0  0  0  0  0  0  0  0  0  0  0  0
    0.0000    1.4993    0.0000 Cl  0  0  0  0  0  0  0  0  0  0  0  0
    5.8397    2.1000    0.0000 C   0  0  0  0  0  0  0  0  0  0  0  0
    7.0521    1.4000    0.0000 N   0  0  0  0  0  0  0  0  0  0  0  0
    5.8397    3.5000    0.0000 O   0  0  0  0  0  0  0  0  0  0  0  0
    8.6009    2.1000    0.0000 C   0  0  0  0  0  0  0  0  0  0  0  0
    9.8133    1.4000    0.0000 C   0  0  0  0  0  0  0  0  0  0  0  0
   11.0257    2.1000    0.0000 C   0  0  0  0  0  0  0  0  0  0  0  0
   12.2382    1.4000    0.0000 C   0  0  0  0  0  0  0  0  0  0  0  0
   12.2382    0.0000    0.0000 O   0  0  0  0  0  0  0  0  0  0  0  0
   13.4506    2.1000    0.0000 O   0  0  0  0  0  0  0  0  0  0  0  0
   14.6630    1.4000    0.0000 C   0  0  0  0  0  0  0  0  0  0  0  0
   15.8755    2.1000    0.0000 C   0  0  0  0  0  0  0  0  0  0  0  0
   17.0879    1.4000    0.0000 C   0  0  0  0  0  0  0  0  0  0  0  0
   18.3003    2.1000    0.0000 C   0  0  0  0  0  0  0  0  0  0  0  0
   19.5128    1.4000    0.0000 C   0  0  0  0  0  0  0  0  0  0  0  0
  1  2  2  0  0  0  0
  2  3  1  0  0  0  0
  3  4  2  0  0  0  0
  4  5  1  0  0  0  0
  5  6  2  0  0  0  0
  6  1  1  0  0  0  0
  3  7  1  0  0  0  0
  1  8  1  0  0  0  0
  7  9  1  0  0  0  0
  9 10  1  0  0  0  0
  9 11  2  0  0  0  0
 10 12  1  0  0  0  0
 12 13  1  0  0  0  0
 13 14  1  0  0  0  0
 14 15  1  0  0  0  0
 15 16  2  0  0  0  0
 15 17  1  0  0  0  0
 17 18  1  0  0  0  0
 18 19  1  0  0  0  0
 19 20  1  0  0  0  0
 20 21  1  0  0  0  0
 21 22  1  0  0  0  0
M  END
> <Molecule Name>
767

> <CDD Number>
CDD-15719

> <Human_sEH_IC50_uM>
2.06

> <Mouse_sEH_IC50_uM>
0.37

$$$$

SketchEl molfile

 22 22  0  0  0  0  0  0  0  0999 V2000
    1.2124    2.1000    0.0000 C   0  0  0  0  0  0  0  0  0  0  0  0
    2.4249    1.4000    0.0000 C   0  0  0  0  0  0  0  0  0  0  0  0
    3.6373    2.1000    0.0000 C   0  0  0  0  0  0  0  0  0  0  0  0
    3.6373    3.5000    0.0000 C   0  0  0  0  0  0  0  0  0  0  0  0
    2.4249    4.2000    0.0000 C   0  0  0  0  0  0  0  0  0  0  0  0
    1.2124    3.5000    0.0000 C   0  0  0  0  0  0  0  0  0  0  0  0
    4.8497    1.4000    0.0000 N   0  0  0  0  0  0  0  0  0  0  0  0
    0.0000    1.4000    0.0000 Cl  0  0  0  0  0  0  0  0  0  0  0  0
    5.8397    2.0007    0.0000 C   0  0  0  0  0  0  0  0  0  0  0  0
    7.0521    1.3007    0.0000 N   0  0  0  0  0  0  0  0  0  0  0  0
    5.8397    3.4007    0.0000 O   0  0  0  0  0  0  0  0  0  0  0  0
    8.6009    2.0007    0.0000 C   0  0  0  0  0  0  0  0  0  0  0  0
    9.8133    1.3007    0.0000 C   0  0  0  0  0  0  0  0  0  0  0  0
   11.0257    2.0007    0.0000 N   0  0  0  0  0  0  0  0  0  0  0  0
   12.0157    1.4000    0.0000 C   0  0  0  0  0  0  0  0  0  0  0  0
   13.2281    2.1000    0.0000 N   0  0  0  0  0  0  0  0  0  0  0  0
   12.0157    0.0000    0.0000 O   0  0  0  0  0  0  0  0  0  0  0  0
   14.2181    1.4993    0.0000 C   0  0  0  0  0  0  0  0  0  0  0  0
   15.4305    2.1993    0.0000 C   0  0  0  0  0  0  0  0  0  0  0  0
   16.6429    1.4993    0.0000 C   0  0  0  0  0  0  0  0  0  0  0  0
   17.8554    2.1993    0.0000 C   0  0  0  0  0  0  0  0  0  0  0  0
   19.0678    1.4993    0.0000 C   0  0  0  0  0  0  0  0  0  0  0  0
  1  2  2  0  0  0  0
  2  3  1  0  0  0  0
  3  4  2  0  0  0  0
  4  5  1  0  0  0  0
  5  6  2  0  0  0  0
  6  1  1  0  0  0  0
  3  7  1  0  0  0  0
  1  8  1  0  0  0  0
  7  9  1  0  0  0  0
  9 10  1  0  0  0  0
  9 11  2  0  0  0  0
 10 12  1  0  0  0  0
 12 13  1  0  0  0  0
 13 14  1  0  0  0  0
 14 15  1  0  0  0  0
 15 16  1  0  0  0  0
 15 17  2  0  0  0  0
 16 18  1  0  0  0  0
 18 19  1  0  0  0  0
 19 20  1  0  0  0  0
 20 21  1  0  0  0  0
 21 22  1  0  0  0  0
M  END
> <Molecule Name>
766

> <CDD Number>
CDD-15718

> <Human_sEH_IC50_uM>
100.0

> <Mouse_sEH_IC50_uM>
110.0

$$$$

SketchEl molfile

 22 22  0  0  0  0  0  0  0  0999 V2000
    1.2124    2.1000    0.0000 C   0  0  0  0  0  0  0  0  0  0  0  0
    2.4249    1.4000    0.0000 C   0  0  0  0  0  0  0  0  0  0  0  0
    3.6373    2.1000    0.0000 C   0  0  0  0  0  0  0  0  0  0  0  0
    3.6373    3.5000    0.0000 C   0  0  0  0  0  0  0  0  0  0  0  0
    2.4249    4.2000    0.0000 C   0  0  0  0  0  0  0  0  0  0  0  0
    1.2124    3.5000    0.0000 C   0  0  0  0  0  0  0  0  0  0  0  0
    4.8497    1.4000    0.0000 N   0  0  0  0  0  0  0  0  0  0  0  0
    0.0000    1.4000    0.0000 Cl  0  0  0  0  0  0  0  0  0  0  0  0
    5.8397    2.0007    0.0000 C   0  0  0  0  0  0  0  0  0  0  0  0
    7.0521    1.3007    0.0000 N   0  0  0  0  0  0  0  0  0  0  0  0
    5.8397    3.4007    0.0000 O   0  0  0  0  0  0  0  0  0  0  0  0
    8.6009    2.0007    0.0000 C   0  0  0  0  0  0  0  0  0  0  0  0
    9.8133    1.3007    0.0000 C   0  0  0  0  0  0  0  0  0  0  0  0
   11.0257    2.0007    0.0000 N   0  0  0  0  0  0  0  0  0  0  0  0
   12.0157    1.4000    0.0000 C   0  0  0  0  0  0  0  0  0  0  0  0
   12.0157    0.0000    0.0000 O   0  0  0  0  0  0  0  0  0  0  0  0
   13.2281    2.1000    0.0000 C   0  0  0  0  0  0  0  0  0  0  0  0
   14.4405    1.4000    0.0000 C   0  0  0  0  0  0  0  0  0  0  0  0
   15.6530    2.1000    0.0000 C   0  0  0  0  0  0  0  0  0  0  0  0
   16.8654    1.4000    0.0000 C   0  0  0  0  0  0  0  0  0  0  0  0
   18.0779    2.1000    0.0000 C   0  0  0  0  0  0  0  0  0  0  0  0
   19.2903    1.4000    0.0000 C   0  0  0  0  0  0  0  0  0  0  0  0
  1  2  2  0  0  0  0
  2  3  1  0  0  0  0
  3  4  2  0  0  0  0
  4  5  1  0  0  0  0
  5  6  2  0  0  0  0
  6  1  1  0  0  0  0
  3  7  1  0  0  0  0
  1  8  1  0  0  0  0
  7  9  1  0  0  0  0
  9 10  1  0  0  0  0
  9 11  2  0  0  0  0
 10 12  1  0  0  0  0
 12 13  1  0  0  0  0
 13 14  1  0  0  0  0
 14 15  1  0  0  0  0
 15 16  2  0  0  0  0
 15 17  1  0  0  0  0
 17 18  1  0  0  0  0
 18 19  1  0  0  0  0
 19 20  1  0  0  0  0
 20 21  1  0  0  0  0
 21 22  1  0  0  0  0
M  END
> <Molecule Name>
765

> <CDD Number>
CDD-15717

> <Human_sEH_IC50_uM>
100.0

> <Mouse_sEH_IC50_uM>
100.0

$$$$

SketchEl molfile

 22 22  0  0  0  0  0  0  0  0999 V2000
    1.2124    2.1000    0.0000 C   0  0  0  0  0  0  0  0  0  0  0  0
    2.4249    1.4000    0.0000 C   0  0  0  0  0  0  0  0  0  0  0  0
    3.6373    2.1000    0.0000 C   0  0  0  0  0  0  0  0  0  0  0  0
    3.6373    3.5000    0.0000 C   0  0  0  0  0  0  0  0  0  0  0  0
    2.4249    4.2000    0.0000 C   0  0  0  0  0  0  0  0  0  0  0  0
    1.2124    3.5000    0.0000 C   0  0  0  0  0  0  0  0  0  0  0  0
    4.8497    1.4000    0.0000 N   0  0  0  0  0  0  0  0  0  0  0  0
    0.0000    1.4000    0.0000 Cl  0  0  0  0  0  0  0  0  0  0  0  0
    5.8397    2.0007    0.0000 C   0  0  0  0  0  0  0  0  0  0  0  0
    7.0521    1.3007    0.0000 N   0  0  0  0  0  0  0  0  0  0  0  0
    5.8397    3.4007    0.0000 O   0  0  0  0  0  0  0  0  0  0  0  0
    8.6009    2.0007    0.0000 C   0  0  0  0  0  0  0  0  0  0  0  0
    9.8133    1.3007    0.0000 C   0  0  0  0  0  0  0  0  0  0  0  0
   11.0257    2.0007    0.0000 N   0  0  0  0  0  0  0  0  0  0  0  0
   12.0157    1.4000    0.0000 C   0  0  0  0  0  0  0  0  0  0  0  0
   13.2281    2.1000    0.0000 O   0  0  0  0  0  0  0  0  0  0  0  0
   12.0157    0.0000    0.0000 O   0  0  0  0  0  0  0  0  0  0  0  0
   14.4405    1.4000    0.0000 C   0  0  0  0  0  0  0  0  0  0  0  0
   15.6530    2.1000    0.0000 C   0  0  0  0  0  0  0  0  0  0  0  0
   16.8654    1.4000    0.0000 C   0  0  0  0  0  0  0  0  0  0  0  0
   18.0779    2.1000    0.0000 C   0  0  0  0  0  0  0  0  0  0  0  0
   19.2903    1.4000    0.0000 C   0  0  0  0  0  0  0  0  0  0  0  0
  1  2  2  0  0  0  0
  2  3  1  0  0  0  0
  3  4  2  0  0  0  0
  4  5  1  0  0  0  0
  5  6  2  0  0  0  0
  6  1  1  0  0  0  0
  3  7  1  0  0  0  0
  1  8  1  0  0  0  0
  7  9  1  0  0  0  0
  9 10  1  0  0  0  0
  9 11  2  0  0  0  0
 10 12  1  0  0  0  0
 12 13  1  0  0  0  0
 13 14  1  0  0  0  0
 14 15  1  0  0  0  0
 15 16  1  0  0  0  0
 15 17  2  0  0  0  0
 16 18  1  0  0  0  0
 18 19  1  0  0  0  0
 19 20  1  0  0  0  0
 20 21  1  0  0  0  0
 21 22  1  0  0  0  0
M  END
> <Molecule Name>
764

> <CDD Number>
CDD-15716

> <Human_sEH_IC50_uM>
4.91

> <Mouse_sEH_IC50_uM>
0.08

$$$$

SketchEl molfile

 22 22  0  0  0  0  0  0  0  0999 V2000
    1.2124    2.1000    0.0000 C   0  0  0  0  0  0  0  0  0  0  0  0
    2.4249    1.4000    0.0000 C   0  0  0  0  0  0  0  0  0  0  0  0
    3.6373    2.1000    0.0000 C   0  0  0  0  0  0  0  0  0  0  0  0
    3.6373    3.5000    0.0000 C   0  0  0  0  0  0  0  0  0  0  0  0
    2.4249    4.2000    0.0000 C   0  0  0  0  0  0  0  0  0  0  0  0
    1.2124    3.5000    0.0000 C   0  0  0  0  0  0  0  0  0  0  0  0
    4.8497    1.4000    0.0000 N   0  0  0  0  0  0  0  0  0  0  0  0
    0.0000    1.4000    0.0000 Cl  0  0  0  0  0  0  0  0  0  0  0  0
    5.8397    2.0007    0.0000 C   0  0  0  0  0  0  0  0  0  0  0  0
    7.0521    1.3007    0.0000 N   0  0  0  0  0  0  0  0  0  0  0  0
    5.8397    3.4007    0.0000 O   0  0  0  0  0  0  0  0  0  0  0  0
    8.6009    2.0007    0.0000 C   0  0  0  0  0  0  0  0  0  0  0  0
    9.8133    1.3007    0.0000 C   0  0  0  0  0  0  0  0  0  0  0  0
   11.0257    2.0007    0.0000 N   0  0  0  0  0  0  0  0  0  0  0  0
   12.0157    1.4000    0.0000 C   0  0  0  0  0  0  0  0  0  0  0  0
   13.2281    2.1000    0.0000 O   0  0  0  0  0  0  0  0  0  0  0  0
   12.0157    0.0000    0.0000 O   0  0  0  0  0  0  0  0  0  0  0  0
   14.4405    1.4000    0.0000 C   0  0  0  0  0  0  0  0  0  0  0  0
   15.6530    2.1000    0.0000 C   0  0  0  0  0  0  0  0  0  0  0  0
   16.8654    1.4000    0.0000 C   0  0  0  0  0  0  0  0  0  0  0  0
   18.0779    2.1000    0.0000 C   0  0  0  0  0  0  0  0  0  0  0  0
   19.2903    1.4000    0.0000 C   0  0  0  0  0  0  0  0  0  0  0  0
  1  2  2  0  0  0  0
  2  3  1  0  0  0  0
  3  4  2  0  0  0  0
  4  5  1  0  0  0  0
  5  6  2  0  0  0  0
  6  1  1  0  0  0  0
  3  7  1  0  0  0  0
  1  8  1  0  0  0  0
  7  9  1  0  0  0  0
  9 10  1  0  0  0  0
  9 11  2  0  0  0  0
 10 12  1  0  0  0  0
 12 13  1  0  0  0  0
 13 14  1  0  0  0  0
 14 15  1  0  0  0  0
 15 16  1  0  0  0  0
 15 17  2  0  0  0  0
 16 18  1  0  0  0  0
 18 19  1  0  0  0  0
 19 20  1  0  0  0  0
 20 21  1  0  0  0  0
 21 22  1  0  0  0  0
M  END
> <Molecule Name>
764

> <CDD Number>
CDD-15716

> <Human_sEH_IC50_uM>
100.0

> <Mouse_sEH_IC50_uM>
78.0

$$$$

SketchEl molfile

 22 22  0  0  0  0  0  0  0  0999 V2000
    1.2124    2.1000    0.0000 C   0  0  0  0  0  0  0  0  0  0  0  0
    2.4249    1.4000    0.0000 C   0  0  0  0  0  0  0  0  0  0  0  0
    3.6373    2.1000    0.0000 C   0  0  0  0  0  0  0  0  0  0  0  0
    3.6373    3.5000    0.0000 C   0  0  0  0  0  0  0  0  0  0  0  0
    2.4249    4.2000    0.0000 C   0  0  0  0  0  0  0  0  0  0  0  0
    1.2124    3.5000    0.0000 C   0  0  0  0  0  0  0  0  0  0  0  0
    4.8497    1.4000    0.0000 N   0  0  0  0  0  0  0  0  0  0  0  0
    0.0000    1.4000    0.0000 Cl  0  0  0  0  0  0  0  0  0  0  0  0
    5.8397    2.0007    0.0000 C   0  0  0  0  0  0  0  0  0  0  0  0
    7.0521    1.3007    0.0000 N   0  0  0  0  0  0  0  0  0  0  0  0
    5.8397    3.4007    0.0000 O   0  0  0  0  0  0  0  0  0  0  0  0
    8.6009    2.0007    0.0000 C   0  0  0  0  0  0  0  0  0  0  0  0
    9.8133    1.3007    0.0000 C   0  0  0  0  0  0  0  0  0  0  0  0
   11.0257    2.0007    0.0000 N   0  0  0  0  0  0  0  0  0  0  0  0
   12.0157    1.4000    0.0000 C   0  0  0  0  0  0  0  0  0  0  0  0
   13.2281    2.1000    0.0000 O   0  0  0  0  0  0  0  0  0  0  0  0
   12.0157    0.0000    0.0000 O   0  0  0  0  0  0  0  0  0  0  0  0
   14.4405    1.4000    0.0000 C   0  0  0  0  0  0  0  0  0  0  0  0
   15.6530    2.1000    0.0000 C   0  0  0  0  0  0  0  0  0  0  0  0
   16.8654    1.4000    0.0000 C   0  0  0  0  0  0  0  0  0  0  0  0
   18.0779    2.1000    0.0000 C   0  0  0  0  0  0  0  0  0  0  0  0
   19.2903    1.4000    0.0000 C   0  0  0  0  0  0  0  0  0  0  0  0
  1  2  2  0  0  0  0
  2  3  1  0  0  0  0
  3  4  2  0  0  0  0
  4  5  1  0  0  0  0
  5  6  2  0  0  0  0
  6  1  1  0  0  0  0
  3  7  1  0  0  0  0
  1  8  1  0  0  0  0
  7  9  1  0  0  0  0
  9 10  1  0  0  0  0
  9 11  2  0  0  0  0
 10 12  1  0  0  0  0
 12 13  1  0  0  0  0
 13 14  1  0  0  0  0
 14 15  1  0  0  0  0
 15 16  1  0  0  0  0
 15 17  2  0  0  0  0
 16 18  1  0  0  0  0
 18 19  1  0  0  0  0
 19 20  1  0  0  0  0
 20 21  1  0  0  0  0
 21 22  1  0  0  0  0
M  END
> <Molecule Name>
764

> <CDD Number>
CDD-15716

> <Human_sEH_IC50_uM>
100.0

> <Mouse_sEH_IC50_uM>
76.0

$$$$

SketchEl molfile

 21 21  0  0  0  0  0  0  0  0999 V2000
    1.2124    2.1993    0.0000 C   0  0  0  0  0  0  0  0  0  0  0  0
    2.4249    1.4993    0.0000 C   0  0  0  0  0  0  0  0  0  0  0  0
    3.6373    2.1993    0.0000 C   0  0  0  0  0  0  0  0  0  0  0  0
    3.6373    3.5993    0.0000 C   0  0  0  0  0  0  0  0  0  0  0  0
    2.4249    4.2993    0.0000 C   0  0  0  0  0  0  0  0  0  0  0  0
    1.2124    3.5993    0.0000 C   0  0  0  0  0  0  0  0  0  0  0  0
    4.8497    1.4993    0.0000 N   0  0  0  0  0  0  0  0  0  0  0  0
    0.0000    1.4993    0.0000 Cl  0  0  0  0  0  0  0  0  0  0  0  0
    5.8397    2.1000    0.0000 C   0  0  0  0  0  0  0  0  0  0  0  0
    7.0521    1.4000    0.0000 N   0  0  0  0  0  0  0  0  0  0  0  0
    5.8397    3.5000    0.0000 O   0  0  0  0  0  0  0  0  0  0  0  0
    8.6009    2.1000    0.0000 C   0  0  0  0  0  0  0  0  0  0  0  0
    9.8133    1.4000    0.0000 C   0  0  0  0  0  0  0  0  0  0  0  0
   11.0257    2.1000    0.0000 O   0  0  0  0  0  0  0  0  0  0  0  0
   12.2382    1.4000    0.0000 C   0  0  0  0  0  0  0  0  0  0  0  0
   13.4506    2.1000    0.0000 N   0  0  0  0  0  0  0  0  0  0  0  0
   12.2382    0.0000    0.0000 O   0  0  0  0  0  0  0  0  0  0  0  0
   14.4405    1.4993    0.0000 C   0  0  0  0  0  0  0  0  0  0  0  0
   15.6530    2.1993    0.0000 C   0  0  0  0  0  0  0  0  0  0  0  0
   16.8654    1.4993    0.0000 C   0  0  0  0  0  0  0  0  0  0  0  0
   18.0779    2.1993    0.0000 C   0  0  0  0  0  0  0  0  0  0  0  0
  1  2  2  0  0  0  0
  2  3  1  0  0  0  0
  3  4  2  0  0  0  0
  4  5  1  0  0  0  0
  5  6  2  0  0  0  0
  6  1  1  0  0  0  0
  3  7  1  0  0  0  0
  1  8  1  0  0  0  0
  7  9  1  0  0  0  0
  9 10  1  0  0  0  0
  9 11  2  0  0  0  0
 10 12  1  0  0  0  0
 12 13  1  0  0  0  0
 13 14  1  0  0  0  0
 14 15  1  0  0  0  0
 15 16  1  0  0  0  0
 15 17  2  0  0  0  0
 16 18  1  0  0  0  0
 18 19  1  0  0  0  0
 19 20  1  0  0  0  0
 20 21  1  0  0  0  0
M  END
> <Molecule Name>
763

> <CDD Number>
CDD-15715

> <Human_sEH_IC50_uM>
53.0

> <Mouse_sEH_IC50_uM>
11.2

$$$$

SketchEl molfile

 22 22  0  0  0  0  0  0  0  0999 V2000
    1.2124    2.1993    0.0000 C   0  0  0  0  0  0  0  0  0  0  0  0
    2.4249    1.4993    0.0000 C   0  0  0  0  0  0  0  0  0  0  0  0
    3.6373    2.1993    0.0000 C   0  0  0  0  0  0  0  0  0  0  0  0
    3.6373    3.5993    0.0000 C   0  0  0  0  0  0  0  0  0  0  0  0
    2.4249    4.2993    0.0000 C   0  0  0  0  0  0  0  0  0  0  0  0
    1.2124    3.5993    0.0000 C   0  0  0  0  0  0  0  0  0  0  0  0
    4.8497    1.4993    0.0000 N   0  0  0  0  0  0  0  0  0  0  0  0
    0.0000    1.4993    0.0000 Cl  0  0  0  0  0  0  0  0  0  0  0  0
    5.8397    2.1000    0.0000 C   0  0  0  0  0  0  0  0  0  0  0  0
    7.0521    1.4000    0.0000 N   0  0  0  0  0  0  0  0  0  0  0  0
    5.8397    3.5000    0.0000 O   0  0  0  0  0  0  0  0  0  0  0  0
    8.6009    2.1000    0.0000 C   0  0  0  0  0  0  0  0  0  0  0  0
    9.8133    1.4000    0.0000 C   0  0  0  0  0  0  0  0  0  0  0  0
   11.0257    2.1000    0.0000 O   0  0  0  0  0  0  0  0  0  0  0  0
   12.2382    1.4000    0.0000 C   0  0  0  0  0  0  0  0  0  0  0  0
   13.4506    2.1000    0.0000 N   0  0  0  0  0  0  0  0  0  0  0  0
   12.2382    0.0000    0.0000 O   0  0  0  0  0  0  0  0  0  0  0  0
   14.4405    1.4993    0.0000 C   0  0  0  0  0  0  0  0  0  0  0  0
   15.6530    2.1993    0.0000 C   0  0  0  0  0  0  0  0  0  0  0  0
   16.8654    1.4993    0.0000 C   0  0  0  0  0  0  0  0  0  0  0  0
   18.0779    2.1993    0.0000 C   0  0  0  0  0  0  0  0  0  0  0  0
   19.2903    1.4993    0.0000 C   0  0  0  0  0  0  0  0  0  0  0  0
  1  2  2  0  0  0  0
  2  3  1  0  0  0  0
  3  4  2  0  0  0  0
  4  5  1  0  0  0  0
  5  6  2  0  0  0  0
  6  1  1  0  0  0  0
  3  7  1  0  0  0  0
  1  8  1  0  0  0  0
  7  9  1  0  0  0  0
  9 10  1  0  0  0  0
  9 11  2  0  0  0  0
 10 12  1  0  0  0  0
 12 13  1  0  0  0  0
 13 14  1  0  0  0  0
 14 15  1  0  0  0  0
 15 16  1  0  0  0  0
 15 17  2  0  0  0  0
 16 18  1  0  0  0  0
 18 19  1  0  0  0  0
 19 20  1  0  0  0  0
 20 21  1  0  0  0  0
 21 22  1  0  0  0  0
M  END
> <Molecule Name>
762

> <CDD Number>
CDD-15714

> <Human_sEH_IC50_uM>
18.4

> <Mouse_sEH_IC50_uM>
5.3

$$$$

SketchEl molfile

 22 22  0  0  0  0  0  0  0  0999 V2000
    1.2124    2.1993    0.0000 C   0  0  0  0  0  0  0  0  0  0  0  0
    2.4249    1.4993    0.0000 C   0  0  0  0  0  0  0  0  0  0  0  0
    3.6373    2.1993    0.0000 C   0  0  0  0  0  0  0  0  0  0  0  0
    3.6373    3.5993    0.0000 C   0  0  0  0  0  0  0  0  0  0  0  0
    2.4249    4.2993    0.0000 C   0  0  0  0  0  0  0  0  0  0  0  0
    1.2124    3.5993    0.0000 C   0  0  0  0  0  0  0  0  0  0  0  0
    4.8497    1.4993    0.0000 N   0  0  0  0  0  0  0  0  0  0  0  0
    0.0000    1.4993    0.0000 Cl  0  0  0  0  0  0  0  0  0  0  0  0
    5.8397    2.1000    0.0000 C   0  0  0  0  0  0  0  0  0  0  0  0
    7.0521    1.4000    0.0000 N   0  0  0  0  0  0  0  0  0  0  0  0
    5.8397    3.5000    0.0000 O   0  0  0  0  0  0  0  0  0  0  0  0
    8.6009    2.1000    0.0000 C   0  0  0  0  0  0  0  0  0  0  0  0
    9.8133    1.4000    0.0000 C   0  0  0  0  0  0  0  0  0  0  0  0
   11.0257    2.1000    0.0000 O   0  0  0  0  0  0  0  0  0  0  0  0
   12.2382    1.4000    0.0000 C   0  0  0  0  0  0  0  0  0  0  0  0
   12.2382    0.0000    0.0000 O   0  0  0  0  0  0  0  0  0  0  0  0
   13.4506    2.1000    0.0000 C   0  0  0  0  0  0  0  0  0  0  0  0
   14.6630    1.4000    0.0000 C   0  0  0  0  0  0  0  0  0  0  0  0
   15.8755    2.1000    0.0000 C   0  0  0  0  0  0  0  0  0  0  0  0
   17.0879    1.4000    0.0000 C   0  0  0  0  0  0  0  0  0  0  0  0
   18.3003    2.1000    0.0000 C   0  0  0  0  0  0  0  0  0  0  0  0
   19.5128    1.4000    0.0000 C   0  0  0  0  0  0  0  0  0  0  0  0
  1  2  2  0  0  0  0
  2  3  1  0  0  0  0
  3  4  2  0  0  0  0
  4  5  1  0  0  0  0
  5  6  2  0  0  0  0
  6  1  1  0  0  0  0
  3  7  1  0  0  0  0
  1  8  1  0  0  0  0
  7  9  1  0  0  0  0
  9 10  1  0  0  0  0
  9 11  2  0  0  0  0
 10 12  1  0  0  0  0
 12 13  1  0  0  0  0
 13 14  1  0  0  0  0
 14 15  1  0  0  0  0
 15 16  2  0  0  0  0
 15 17  1  0  0  0  0
 17 18  1  0  0  0  0
 18 19  1  0  0  0  0
 19 20  1  0  0  0  0
 20 21  1  0  0  0  0
 21 22  1  0  0  0  0
M  END
> <Molecule Name>
761

> <CDD Number>
CDD-15713

> <Human_sEH_IC50_uM>
26.0

> <Mouse_sEH_IC50_uM>
7.7

$$$$

SketchEl molfile

 22 22  0  0  0  0  0  0  0  0999 V2000
    1.2124    2.1993    0.0000 C   0  0  0  0  0  0  0  0  0  0  0  0
    2.4249    1.4993    0.0000 C   0  0  0  0  0  0  0  0  0  0  0  0
    3.6373    2.1993    0.0000 C   0  0  0  0  0  0  0  0  0  0  0  0
    3.6373    3.5993    0.0000 C   0  0  0  0  0  0  0  0  0  0  0  0
    2.4249    4.2993    0.0000 C   0  0  0  0  0  0  0  0  0  0  0  0
    1.2124    3.5993    0.0000 C   0  0  0  0  0  0  0  0  0  0  0  0
    4.8497    1.4993    0.0000 N   0  0  0  0  0  0  0  0  0  0  0  0
    0.0000    1.4993    0.0000 Cl  0  0  0  0  0  0  0  0  0  0  0  0
    5.8397    2.1000    0.0000 C   0  0  0  0  0  0  0  0  0  0  0  0
    7.0521    1.4000    0.0000 N   0  0  0  0  0  0  0  0  0  0  0  0
    5.8397    3.5000    0.0000 O   0  0  0  0  0  0  0  0  0  0  0  0
    8.6009    2.1000    0.0000 C   0  0  0  0  0  0  0  0  0  0  0  0
    9.8133    1.4000    0.0000 C   0  0  0  0  0  0  0  0  0  0  0  0
   11.0257    2.1000    0.0000 O   0  0  0  0  0  0  0  0  0  0  0  0
   12.2382    1.4000    0.0000 C   0  0  0  0  0  0  0  0  0  0  0  0
   12.2382    0.0000    0.0000 O   0  0  0  0  0  0  0  0  0  0  0  0
   13.4506    2.1000    0.0000 C   0  0  0  0  0  0  0  0  0  0  0  0
   14.6630    1.4000    0.0000 C   0  0  0  0  0  0  0  0  0  0  0  0
   15.8755    2.1000    0.0000 C   0  0  0  0  0  0  0  0  0  0  0  0
   17.0879    1.4000    0.0000 C   0  0  0  0  0  0  0  0  0  0  0  0
   18.3003    2.1000    0.0000 C   0  0  0  0  0  0  0  0  0  0  0  0
   19.5128    1.4000    0.0000 C   0  0  0  0  0  0  0  0  0  0  0  0
  1  2  2  0  0  0  0
  2  3  1  0  0  0  0
  3  4  2  0  0  0  0
  4  5  1  0  0  0  0
  5  6  2  0  0  0  0
  6  1  1  0  0  0  0
  3  7  1  0  0  0  0
  1  8  1  0  0  0  0
  7  9  1  0  0  0  0
  9 10  1  0  0  0  0
  9 11  2  0  0  0  0
 10 12  1  0  0  0  0
 12 13  1  0  0  0  0
 13 14  1  0  0  0  0
 14 15  1  0  0  0  0
 15 16  2  0  0  0  0
 15 17  1  0  0  0  0
 17 18  1  0  0  0  0
 18 19  1  0  0  0  0
 19 20  1  0  0  0  0
 20 21  1  0  0  0  0
 21 22  1  0  0  0  0
M  END
> <Molecule Name>
761

> <CDD Number>
CDD-15713

> <Human_sEH_IC50_uM>
12.0

> <Mouse_sEH_IC50_uM>
5.34

$$$$

SketchEl molfile

 22 22  0  0  0  0  0  0  0  0999 V2000
    1.2124    2.2987    0.0000 C   0  0  0  0  0  0  0  0  0  0  0  0
    2.4249    1.5987    0.0000 C   0  0  0  0  0  0  0  0  0  0  0  0
    3.6373    2.2987    0.0000 C   0  0  0  0  0  0  0  0  0  0  0  0
    3.6373    3.6987    0.0000 C   0  0  0  0  0  0  0  0  0  0  0  0
    2.4249    4.3987    0.0000 C   0  0  0  0  0  0  0  0  0  0  0  0
    1.2124    3.6987    0.0000 C   0  0  0  0  0  0  0  0  0  0  0  0
    4.8497    1.5987    0.0000 N   0  0  0  0  0  0  0  0  0  0  0  0
    0.0000    1.5987    0.0000 Cl  0  0  0  0  0  0  0  0  0  0  0  0
    5.8397    2.1993    0.0000 C   0  0  0  0  0  0  0  0  0  0  0  0
    7.0521    1.4993    0.0000 N   0  0  0  0  0  0  0  0  0  0  0  0
    5.8397    3.5993    0.0000 O   0  0  0  0  0  0  0  0  0  0  0  0
    8.0421    2.1000    0.0000 C   0  0  0  0  0  0  0  0  0  0  0  0
    9.2545    1.4000    0.0000 C   0  0  0  0  0  0  0  0  0  0  0  0
   10.4669    2.1000    0.0000 O   0  0  0  0  0  0  0  0  0  0  0  0
   11.6794    1.4000    0.0000 C   0  0  0  0  0  0  0  0  0  0  0  0
   12.8918    2.1000    0.0000 O   0  0  0  0  0  0  0  0  0  0  0  0
   11.6794    0.0000    0.0000 O   0  0  0  0  0  0  0  0  0  0  0  0
   14.1043    1.4000    0.0000 C   0  0  0  0  0  0  0  0  0  0  0  0
   15.3167    2.1000    0.0000 C   0  0  0  0  0  0  0  0  0  0  0  0
   16.5291    1.4000    0.0000 C   0  0  0  0  0  0  0  0  0  0  0  0
   17.7416    2.1000    0.0000 C   0  0  0  0  0  0  0  0  0  0  0  0
   18.9540    1.4000    0.0000 C   0  0  0  0  0  0  0  0  0  0  0  0
  1  2  2  0  0  0  0
  2  3  1  0  0  0  0
  3  4  2  0  0  0  0
  4  5  1  0  0  0  0
  5  6  2  0  0  0  0
  6  1  1  0  0  0  0
  3  7  1  0  0  0  0
  1  8  1  0  0  0  0
  7  9  1  0  0  0  0
  9 10  1  0  0  0  0
  9 11  2  0  0  0  0
 10 12  1  0  0  0  0
 12 13  1  0  0  0  0
 13 14  1  0  0  0  0
 14 15  1  0  0  0  0
 15 16  1  0  0  0  0
 15 17  2  0  0  0  0
 16 18  1  0  0  0  0
 18 19  1  0  0  0  0
 19 20  1  0  0  0  0
 20 21  1  0  0  0  0
 21 22  1  0  0  0  0
M  END
> <Molecule Name>
760

> <CDD Number>
CDD-15712

> <Human_sEH_IC50_uM>
22.0

> <Mouse_sEH_IC50_uM>
7.6

$$$$

SketchEl molfile

 22 22  0  0  0  0  0  0  0  0999 V2000
    1.2124    2.2987    0.0000 C   0  0  0  0  0  0  0  0  0  0  0  0
    2.4249    1.5987    0.0000 C   0  0  0  0  0  0  0  0  0  0  0  0
    3.6373    2.2987    0.0000 C   0  0  0  0  0  0  0  0  0  0  0  0
    3.6373    3.6987    0.0000 C   0  0  0  0  0  0  0  0  0  0  0  0
    2.4249    4.3987    0.0000 C   0  0  0  0  0  0  0  0  0  0  0  0
    1.2124    3.6987    0.0000 C   0  0  0  0  0  0  0  0  0  0  0  0
    4.8497    1.5987    0.0000 N   0  0  0  0  0  0  0  0  0  0  0  0
    0.0000    1.5987    0.0000 Cl  0  0  0  0  0  0  0  0  0  0  0  0
    5.8397    2.1993    0.0000 C   0  0  0  0  0  0  0  0  0  0  0  0
    7.0521    1.4993    0.0000 N   0  0  0  0  0  0  0  0  0  0  0  0
    5.8397    3.5993    0.0000 O   0  0  0  0  0  0  0  0  0  0  0  0
    8.0421    2.1000    0.0000 C   0  0  0  0  0  0  0  0  0  0  0  0
    9.2545    1.4000    0.0000 C   0  0  0  0  0  0  0  0  0  0  0  0
   10.4669    2.1000    0.0000 O   0  0  0  0  0  0  0  0  0  0  0  0
   11.6794    1.4000    0.0000 C   0  0  0  0  0  0  0  0  0  0  0  0
   12.8918    2.1000    0.0000 O   0  0  0  0  0  0  0  0  0  0  0  0
   11.6794    0.0000    0.0000 O   0  0  0  0  0  0  0  0  0  0  0  0
   14.1043    1.4000    0.0000 C   0  0  0  0  0  0  0  0  0  0  0  0
   15.3167    2.1000    0.0000 C   0  0  0  0  0  0  0  0  0  0  0  0
   16.5291    1.4000    0.0000 C   0  0  0  0  0  0  0  0  0  0  0  0
   17.7416    2.1000    0.0000 C   0  0  0  0  0  0  0  0  0  0  0  0
   18.9540    1.4000    0.0000 C   0  0  0  0  0  0  0  0  0  0  0  0
  1  2  2  0  0  0  0
  2  3  1  0  0  0  0
  3  4  2  0  0  0  0
  4  5  1  0  0  0  0
  5  6  2  0  0  0  0
  6  1  1  0  0  0  0
  3  7  1  0  0  0  0
  1  8  1  0  0  0  0
  7  9  1  0  0  0  0
  9 10  1  0  0  0  0
  9 11  2  0  0  0  0
 10 12  1  0  0  0  0
 12 13  1  0  0  0  0
 13 14  1  0  0  0  0
 14 15  1  0  0  0  0
 15 16  1  0  0  0  0
 15 17  2  0  0  0  0
 16 18  1  0  0  0  0
 18 19  1  0  0  0  0
 19 20  1  0  0  0  0
 20 21  1  0  0  0  0
 21 22  1  0  0  0  0
M  END
> <Molecule Name>
760

> <CDD Number>
CDD-15712

> <Human_sEH_IC50_uM>
27.6

> <Mouse_sEH_IC50_uM>
9.8

$$$$

SketchEl molfile

 18 18  0  0  0  0  0  0  0  0999 V2000
    0.9073    3.3322    0.0000 C   0  0  0  0  0  0  0  0  0  0  0  0
    2.1198    4.0322    0.0000 O   0  0  0  0  0  0  0  0  0  0  0  0
    3.3322    3.3322    0.0000 P   0  0  0  0  0  0  0  0  0  0  0  0
    2.3422    2.3422    0.0000 O   0  0  0  0  0  0  0  0  0  0  0  0
    3.3322    4.7322    0.0000 O   0  0  0  0  0  0  0  0  0  0  0  0
    4.5446    2.6322    0.0000 O   0  0  0  0  0  0  0  0  0  0  0  0
    5.7571    3.3322    0.0000 C   0  0  0  0  0  0  0  0  0  0  0  0
    6.9695    2.6322    0.0000 C   0  0  0  0  0  0  0  0  0  0  0  0
    8.1819    3.3322    0.0000 C   0  0  0  0  0  0  0  0  0  0  0  0
    8.1819    4.7322    0.0000 C   0  0  0  0  0  0  0  0  0  0  0  0
    6.9695    5.4322    0.0000 C   0  0  0  0  0  0  0  0  0  0  0  0
    5.7571    4.7322    0.0000 C   0  0  0  0  0  0  0  0  0  0  0  0
    4.5446    5.4322    0.0000 Cl  0  0  0  0  0  0  0  0  0  0  0  0
    9.3944    5.4322    0.0000 Cl  0  0  0  0  0  0  0  0  0  0  0  0
    1.3523    1.3523    0.0000 C   0  0  0  0  0  0  0  0  0  0  0  0
    1.7146    0.0000    0.0000 C   0  0  0  0  0  0  0  0  0  0  0  0
    0.0000    1.7146    0.0000 C   0  0  0  0  0  0  0  0  0  0  0  0
    0.3623    0.3623    0.0000 C   0  0  0  0  0  0  0  0  0  0  0  0
  1  2  1  0  0  0  0
  2  3  1  0  0  0  0
  3  4  1  0  0  0  0
  3  5  2  0  0  0  0
  3  6  1  0  0  0  0
  6  7  1  0  0  0  0
  7  8  2  0  0  0  0
  8  9  1  0  0  0  0
  9 10  2  0  0  0  0
 10 11  1  0  0  0  0
 11 12  2  0  0  0  0
 12  7  1  0  0  0  0
 12 13  1  0  0  0  0
 10 14  1  0  0  0  0
  4 15  1  0  0  0  0
 15 16  1  0  0  0  0
 15 17  1  0  0  0  0
 15 18  1  0  0  0  0
M  END
> <Molecule Name>
745

> <CDD Number>
CDD-15668

> <Human_sEH_IC50_uM>
100.0

> <Mouse_sEH_IC50_uM>
100.0

$$$$

SketchEl molfile

 18 18  0  0  0  0  0  0  0  0999 V2000
    0.1826    5.6744    0.0000 C   0  0  0  0  0  0  0  0  0  0  0  0
    1.3951    6.3744    0.0000 O   0  0  0  0  0  0  0  0  0  0  0  0
    2.6075    5.6744    0.0000 P   0  0  0  0  0  0  0  0  0  0  0  0
    1.6176    4.6845    0.0000 N   0  0  0  0  0  0  0  0  0  0  0  0
    2.6075    7.0744    0.0000 O   0  0  0  0  0  0  0  0  0  0  0  0
    3.8199    4.9744    0.0000 O   0  0  0  0  0  0  0  0  0  0  0  0
    5.0324    5.6744    0.0000 C   0  0  0  0  0  0  0  0  0  0  0  0
    6.2448    4.9744    0.0000 C   0  0  0  0  0  0  0  0  0  0  0  0
    7.4572    5.6744    0.0000 C   0  0  0  0  0  0  0  0  0  0  0  0
    7.4572    7.0744    0.0000 C   0  0  0  0  0  0  0  0  0  0  0  0
    6.2448    7.7744    0.0000 C   0  0  0  0  0  0  0  0  0  0  0  0
    5.0324    7.0744    0.0000 C   0  0  0  0  0  0  0  0  0  0  0  0
    3.8199    7.7744    0.0000 Cl  0  0  0  0  0  0  0  0  0  0  0  0
    8.6697    7.7744    0.0000 Cl  0  0  0  0  0  0  0  0  0  0  0  0
    0.6276    3.6945    0.0000 C   0  0  0  0  0  0  0  0  0  0  0  0
    0.9899    2.3422    0.0000 C   0  0  0  0  0  0  0  0  0  0  0  0
    0.0000    1.3523    0.0000 C   0  0  0  0  0  0  0  0  0  0  0  0
    0.3623    0.0000    0.0000 C   0  0  0  0  0  0  0  0  0  0  0  0
  1  2  1  0  0  0  0
  2  3  1  0  0  0  0
  3  4  1  0  0  0  0
  3  5  2  0  0  0  0
  3  6  1  0  0  0  0
  6  7  1  0  0  0  0
  7  8  2  0  0  0  0
  8  9  1  0  0  0  0
  9 10  2  0  0  0  0
 10 11  1  0  0  0  0
 11 12  2  0  0  0  0
 12  7  1  0  0  0  0
 12 13  1  0  0  0  0
 10 14  1  0  0  0  0
  4 15  1  0  0  0  0
 15 16  1  0  0  0  0
 16 17  1  0  0  0  0
 17 18  1  0  0  0  0
M  END
> <Molecule Name>
743

> <CDD Number>
CDD-15667

> <Human_sEH_IC50_uM>
100.0

> <Mouse_sEH_IC50_uM>
100.0

$$$$

SketchEl molfile

 17 17  0  0  0  0  0  0  0  0999 V2000
    0.9073    3.3322    0.0000 C   0  0  0  0  0  0  0  0  0  0  0  0
    2.1198    4.0322    0.0000 O   0  0  0  0  0  0  0  0  0  0  0  0
    3.3322    3.3322    0.0000 P   0  0  0  0  0  0  0  0  0  0  0  0
    2.3422    2.3422    0.0000 N   0  0  0  0  0  0  0  0  0  0  0  0
    3.3322    4.7322    0.0000 O   0  0  0  0  0  0  0  0  0  0  0  0
    4.5446    2.6322    0.0000 O   0  0  0  0  0  0  0  0  0  0  0  0
    5.7571    3.3322    0.0000 C   0  0  0  0  0  0  0  0  0  0  0  0
    6.9695    2.6322    0.0000 C   0  0  0  0  0  0  0  0  0  0  0  0
    8.1819    3.3322    0.0000 C   0  0  0  0  0  0  0  0  0  0  0  0
    8.1819    4.7322    0.0000 C   0  0  0  0  0  0  0  0  0  0  0  0
    6.9695    5.4322    0.0000 C   0  0  0  0  0  0  0  0  0  0  0  0
    5.7571    4.7322    0.0000 C   0  0  0  0  0  0  0  0  0  0  0  0
    4.5446    5.4322    0.0000 Cl  0  0  0  0  0  0  0  0  0  0  0  0
    9.3944    5.4322    0.0000 Cl  0  0  0  0  0  0  0  0  0  0  0  0
    1.3523    1.3523    0.0000 C   0  0  0  0  0  0  0  0  0  0  0  0
    1.7146    0.0000    0.0000 C   0  0  0  0  0  0  0  0  0  0  0  0
    0.0000    1.7146    0.0000 C   0  0  0  0  0  0  0  0  0  0  0  0
  1  2  1  0  0  0  0
  2  3  1  0  0  0  0
  3  4  1  0  0  0  0
  3  5  2  0  0  0  0
  3  6  1  0  0  0  0
  6  7  1  0  0  0  0
  7  8  2  0  0  0  0
  8  9  1  0  0  0  0
  9 10  2  0  0  0  0
 10 11  1  0  0  0  0
 11 12  2  0  0  0  0
 12  7  1  0  0  0  0
 12 13  1  0  0  0  0
 10 14  1  0  0  0  0
  4 15  1  0  0  0  0
 15 16  1  0  0  0  0
 15 17  1  0  0  0  0
M  END
> <Molecule Name>
742

> <CDD Number>
CDD-15666

> <Human_sEH_IC50_uM>
100.0

> <Mouse_sEH_IC50_uM>
100.0

$$$$

SketchEl molfile

 17 17  0  0  0  0  0  0  0  0999 V2000
    1.6320    3.0669    0.0000 C   0  0  0  0  0  0  0  0  0  0  0  0
    2.8445    3.7669    0.0000 O   0  0  0  0  0  0  0  0  0  0  0  0
    4.0569    3.0669    0.0000 P   0  0  0  0  0  0  0  0  0  0  0  0
    3.0669    2.0770    0.0000 N   0  0  0  0  0  0  0  0  0  0  0  0
    4.0569    4.4669    0.0000 O   0  0  0  0  0  0  0  0  0  0  0  0
    5.2693    2.3669    0.0000 O   0  0  0  0  0  0  0  0  0  0  0  0
    6.4818    3.0669    0.0000 C   0  0  0  0  0  0  0  0  0  0  0  0
    7.6942    2.3669    0.0000 C   0  0  0  0  0  0  0  0  0  0  0  0
    8.9066    3.0669    0.0000 C   0  0  0  0  0  0  0  0  0  0  0  0
    8.9066    4.4669    0.0000 C   0  0  0  0  0  0  0  0  0  0  0  0
    7.6942    5.1669    0.0000 C   0  0  0  0  0  0  0  0  0  0  0  0
    6.4818    4.4669    0.0000 C   0  0  0  0  0  0  0  0  0  0  0  0
    5.2693    5.1669    0.0000 Cl  0  0  0  0  0  0  0  0  0  0  0  0
   10.1191    5.1669    0.0000 Cl  0  0  0  0  0  0  0  0  0  0  0  0
    1.7146    1.7146    0.0000 C   0  0  0  0  0  0  0  0  0  0  0  0
    1.3523    0.3623    0.0000 C   0  0  0  0  0  0  0  0  0  0  0  0
    0.0000    0.0000    0.0000 C   0  0  0  0  0  0  0  0  0  0  0  0
  1  2  1  0  0  0  0
  2  3  1  0  0  0  0
  3  4  1  0  0  0  0
  3  5  2  0  0  0  0
  3  6  1  0  0  0  0
  6  7  1  0  0  0  0
  7  8  2  0  0  0  0
  8  9  1  0  0  0  0
  9 10  2  0  0  0  0
 10 11  1  0  0  0  0
 11 12  2  0  0  0  0
 12  7  1  0  0  0  0
 12 13  1  0  0  0  0
 10 14  1  0  0  0  0
  4 15  1  0  0  0  0
 15 16  1  0  0  0  0
 16 17  1  0  0  0  0
M  END
> <Molecule Name>
741

> <CDD Number>
CDD-15665

> <Human_sEH_IC50_uM>
100.0

> <Mouse_sEH_IC50_uM>
100.0

$$$$

SketchEl molfile

 16 16  0  0  0  0  0  0  0  0999 V2000
    0.2797    2.7046    0.0000 C   0  0  0  0  0  0  0  0  0  0  0  0
    1.4922    3.4046    0.0000 O   0  0  0  0  0  0  0  0  0  0  0  0
    2.7046    2.7046    0.0000 P   0  0  0  0  0  0  0  0  0  0  0  0
    1.7146    1.7146    0.0000 N   0  0  0  0  0  0  0  0  0  0  0  0
    2.7046    4.1046    0.0000 O   0  0  0  0  0  0  0  0  0  0  0  0
    3.9170    2.0046    0.0000 O   0  0  0  0  0  0  0  0  0  0  0  0
    5.1295    2.7046    0.0000 C   0  0  0  0  0  0  0  0  0  0  0  0
    6.3419    2.0046    0.0000 C   0  0  0  0  0  0  0  0  0  0  0  0
    7.5543    2.7046    0.0000 C   0  0  0  0  0  0  0  0  0  0  0  0
    7.5543    4.1046    0.0000 C   0  0  0  0  0  0  0  0  0  0  0  0
    6.3419    4.8046    0.0000 C   0  0  0  0  0  0  0  0  0  0  0  0
    5.1295    4.1046    0.0000 C   0  0  0  0  0  0  0  0  0  0  0  0
    3.9170    4.8046    0.0000 Cl  0  0  0  0  0  0  0  0  0  0  0  0
    8.7668    4.8046    0.0000 Cl  0  0  0  0  0  0  0  0  0  0  0  0
    0.3623    1.3523    0.0000 C   0  0  0  0  0  0  0  0  0  0  0  0
    0.0000    0.0000    0.0000 C   0  0  0  0  0  0  0  0  0  0  0  0
  1  2  1  0  0  0  0
  2  3  1  0  0  0  0
  3  4  1  0  0  0  0
  3  5  2  0  0  0  0
  3  6  1  0  0  0  0
  6  7  1  0  0  0  0
  7  8  2  0  0  0  0
  8  9  1  0  0  0  0
  9 10  2  0  0  0  0
 10 11  1  0  0  0  0
 11 12  2  0  0  0  0
 12  7  1  0  0  0  0
 12 13  1  0  0  0  0
 10 14  1  0  0  0  0
  4 15  1  0  0  0  0
 15 16  1  0  0  0  0
M  END
> <Molecule Name>
740

> <CDD Number>
CDD-15664

> <Human_sEH_IC50_uM>
100.0

> <Mouse_sEH_IC50_uM>
100.0

$$$$

SketchEl molfile

 15 15  0  0  0  0  0  0  0  0999 V2000
    0.0000    1.6899    0.0000 C   0  0  0  0  0  0  0  0  0  0  0  0
    1.2124    2.3899    0.0000 O   0  0  0  0  0  0  0  0  0  0  0  0
    2.4249    1.6899    0.0000 P   0  0  0  0  0  0  0  0  0  0  0  0
    1.4349    0.7000    0.0000 N   0  0  0  0  0  0  0  0  0  0  0  0
    2.4249    3.0899    0.0000 O   0  0  0  0  0  0  0  0  0  0  0  0
    3.6373    0.9899    0.0000 O   0  0  0  0  0  0  0  0  0  0  0  0
    4.8497    1.6899    0.0000 C   0  0  0  0  0  0  0  0  0  0  0  0
    6.0622    0.9899    0.0000 C   0  0  0  0  0  0  0  0  0  0  0  0
    7.2746    1.6899    0.0000 C   0  0  0  0  0  0  0  0  0  0  0  0
    7.2746    3.0899    0.0000 C   0  0  0  0  0  0  0  0  0  0  0  0
    6.0622    3.7899    0.0000 C   0  0  0  0  0  0  0  0  0  0  0  0
    4.8497    3.0899    0.0000 C   0  0  0  0  0  0  0  0  0  0  0  0
    3.6373    3.7899    0.0000 Cl  0  0  0  0  0  0  0  0  0  0  0  0
    8.4870    3.7900    0.0000 Cl  0  0  0  0  0  0  0  0  0  0  0  0
    0.2225    0.0000    0.0000 C   0  0  0  0  0  0  0  0  0  0  0  0
  1  2  1  0  0  0  0
  2  3  1  0  0  0  0
  3  4  1  0  0  0  0
  3  5  2  0  0  0  0
  3  6  1  0  0  0  0
  6  7  1  0  0  0  0
  7  8  2  0  0  0  0
  8  9  1  0  0  0  0
  9 10  2  0  0  0  0
 10 11  1  0  0  0  0
 11 12  2  0  0  0  0
 12  7  1  0  0  0  0
 12 13  1  0  0  0  0
 10 14  1  0  0  0  0
  4 15  1  0  0  0  0
M  END
> <Molecule Name>
739

> <CDD Number>
CDD-15663

> <Human_sEH_IC50_uM>
100.0

> <Mouse_sEH_IC50_uM>
100.0

$$$$

SketchEl molfile

 14 14  0  0  0  0  0  0  0  0999 V2000
    0.0000    0.9899    0.0000 C   0  0  0  0  0  0  0  0  0  0  0  0
    1.2124    1.6899    0.0000 O   0  0  0  0  0  0  0  0  0  0  0  0
    2.4249    0.9899    0.0000 P   0  0  0  0  0  0  0  0  0  0  0  0
    1.4349    0.0000    0.0000 N   0  0  0  0  0  0  0  0  0  0  0  0
    2.4249    2.3899    0.0000 O   0  0  0  0  0  0  0  0  0  0  0  0
    3.6373    0.2899    0.0000 O   0  0  0  0  0  0  0  0  0  0  0  0
    4.8497    0.9899    0.0000 C   0  0  0  0  0  0  0  0  0  0  0  0
    6.0622    0.2899    0.0000 C   0  0  0  0  0  0  0  0  0  0  0  0
    7.2746    0.9899    0.0000 C   0  0  0  0  0  0  0  0  0  0  0  0
    7.2746    2.3899    0.0000 C   0  0  0  0  0  0  0  0  0  0  0  0
    6.0622    3.0899    0.0000 C   0  0  0  0  0  0  0  0  0  0  0  0
    4.8497    2.3899    0.0000 C   0  0  0  0  0  0  0  0  0  0  0  0
    3.6373    3.0899    0.0000 Cl  0  0  0  0  0  0  0  0  0  0  0  0
    8.4870    3.0899    0.0000 Cl  0  0  0  0  0  0  0  0  0  0  0  0
  1  2  1  0  0  0  0
  2  3  1  0  0  0  0
  3  4  1  0  0  0  0
  3  5  2  0  0  0  0
  3  6  1  0  0  0  0
  6  7  1  0  0  0  0
  7  8  2  0  0  0  0
  8  9  1  0  0  0  0
  9 10  2  0  0  0  0
 10 11  1  0  0  0  0
 11 12  2  0  0  0  0
 12  7  1  0  0  0  0
 12 13  1  0  0  0  0
 10 14  1  0  0  0  0
M  END
> <Molecule Name>
738

> <CDD Number>
CDD-15662

> <Human_sEH_IC50_uM>
100.0

> <Mouse_sEH_IC50_uM>
100.0

$$$$

SketchEl molfile

 19 20  0  0  0  0  0  0  0  0999 V2000
    7.2746    2.1000    0.0000 C   0  0  0  0  0  0  0  0  0  0  0  0
    6.0622    1.4000    0.0000 N   0  0  0  0  0  0  0  0  0  0  0  0
    4.8497    2.1000    0.0000 C   0  0  0  0  0  0  0  0  0  0  0  0
    3.6373    1.4000    0.0000 N   0  0  0  0  0  0  0  0  0  0  0  0
    4.8497    3.5000    0.0000 O   0  0  0  0  0  0  0  0  0  0  0  0
    2.4249    2.1000    0.0000 C   0  0  0  0  0  0  0  0  0  0  0  0
    2.4249    3.5000    0.0000 C   0  0  0  0  0  0  0  0  0  0  0  0
    1.2124    4.2000    0.0000 C   0  0  0  0  0  0  0  0  0  0  0  0
    0.0000    3.5000    0.0000 C   0  0  0  0  0  0  0  0  0  0  0  0
    0.0000    2.1000    0.0000 C   0  0  0  0  0  0  0  0  0  0  0  0
    1.2124    1.4000    0.0000 C   0  0  0  0  0  0  0  0  0  0  0  0
    8.4870    1.4000    0.0000 C   0  0  0  0  0  0  0  0  0  0  0  0
    9.6995    2.1000    0.0000 C   0  0  0  0  0  0  0  0  0  0  0  0
    9.6995    3.5000    0.0000 C   0  0  0  0  0  0  0  0  0  0  0  0
    8.4870    4.2000    0.0000 C   0  0  0  0  0  0  0  0  0  0  0  0
    7.2746    3.5000    0.0000 C   0  0  0  0  0  0  0  0  0  0  0  0
   10.9119    1.4000    0.0000 C   0  0  0  0  0  0  0  0  0  0  0  0
   12.1244    2.1000    0.0000 O   0  0  0  0  0  0  0  0  0  0  0  0
   10.9119    0.0000    0.0000 O   0  0  0  0  0  0  0  0  0  0  0  0
  1  2  1  0  0  0  0
  2  3  1  0  0  0  0
  3  4  1  0  0  0  0
  3  5  2  0  0  0  0
  4  6  1  0  0  0  0
  6  7  1  0  0  0  0
  7  8  1  0  0  0  0
  8  9  1  0  0  0  0
  9 10  1  0  0  0  0
 10 11  1  0  0  0  0
 11  6  1  0  0  0  0
  1 12  2  0  0  0  0
 12 13  1  0  0  0  0
 13 14  2  0  0  0  0
 14 15  1  0  0  0  0
 15 16  2  0  0  0  0
 16  1  1  0  0  0  0
 13 17  1  0  0  0  0
 17 18  1  0  0  0  0
 17 19  2  0  0  0  0
M  END
> <Molecule Name>
737

> <CDD Number>
CDD-15874

> <Human_sEH_IC50_uM>
100.0

> <Mouse_sEH_IC50_uM>
100.0

$$$$

SketchEl molfile

 24 25  0  0  0  0  0  0  0  0999 V2000
    1.2124    2.8993    0.0000 C   0  0  0  0  0  0  0  0  0  0  0  0
    2.4249    2.1993    0.0000 C   0  0  0  0  0  0  0  0  0  0  0  0
    3.6373    2.8993    0.0000 C   0  0  0  0  0  0  0  0  0  0  0  0
    3.6373    4.2993    0.0000 C   0  0  0  0  0  0  0  0  0  0  0  0
    2.4249    4.9993    0.0000 C   0  0  0  0  0  0  0  0  0  0  0  0
    1.2124    4.2993    0.0000 C   0  0  0  0  0  0  0  0  0  0  0  0
    4.8497    2.1993    0.0000 N   0  0  0  0  0  0  0  0  0  0  0  0
    5.8397    2.8000    0.0000 C   0  0  0  0  0  0  0  0  0  0  0  0
    7.0521    2.1000    0.0000 N   0  0  0  0  0  0  0  0  0  0  0  0
    5.8397    4.2000    0.0000 O   0  0  0  0  0  0  0  0  0  0  0  0
    8.0421    2.7007    0.0000 C   0  0  0  0  0  0  0  0  0  0  0  0
    9.2545    2.0007    0.0000 C   0  0  0  0  0  0  0  0  0  0  0  0
    0.0000    2.1993    0.0000 Cl  0  0  0  0  0  0  0  0  0  0  0  0
   10.4669    2.7007    0.0000 N   0  0  0  0  0  0  0  0  0  0  0  0
   11.4569    2.1000    0.0000 C   0  0  0  0  0  0  0  0  0  0  0  0
   12.6693    2.8000    0.0000 N   0  0  0  0  0  0  0  0  0  0  0  0
   11.4569    0.7000    0.0000 O   0  0  0  0  0  0  0  0  0  0  0  0
   13.8818    2.1000    0.0000 C   0  0  0  0  0  0  0  0  0  0  0  0
   13.8818    0.7000    0.0000 C   0  0  0  0  0  0  0  0  0  0  0  0
   15.0942    0.0000    0.0000 C   0  0  0  0  0  0  0  0  0  0  0  0
   16.3066    0.7000    0.0000 C   0  0  0  0  0  0  0  0  0  0  0  0
   16.3066    2.1000    0.0000 C   0  0  0  0  0  0  0  0  0  0  0  0
   15.0942    2.8000    0.0000 C   0  0  0  0  0  0  0  0  0  0  0  0
   17.5191    2.8000    0.0000 Cl  0  0  0  0  0  0  0  0  0  0  0  0
  1  2  2  0  0  0  0
  2  3  1  0  0  0  0
  3  4  2  0  0  0  0
  4  5  1  0  0  0  0
  5  6  2  0  0  0  0
  6  1  1  0  0  0  0
  3  7  1  0  0  0  0
  7  8  1  0  0  0  0
  8  9  1  0  0  0  0
  8 10  2  0  0  0  0
  9 11  1  0  0  0  0
 11 12  1  0  0  0  0
  1 13  1  0  0  0  0
 12 14  1  0  0  0  0
 14 15  1  0  0  0  0
 15 16  1  0  0  0  0
 15 17  2  0  0  0  0
 16 18  1  0  0  0  0
 18 19  2  0  0  0  0
 19 20  1  0  0  0  0
 20 21  2  0  0  0  0
 21 22  1  0  0  0  0
 22 23  2  0  0  0  0
 23 18  1  0  0  0  0
 22 24  1  0  0  0  0
M  END
> <Molecule Name>
736

> <CDD Number>
CDD-16041

> <Human_sEH_IC50_uM>
100.0

> <Mouse_sEH_IC50_uM>
100.0

$$$$

SketchEl molfile

 19 19  0  0  0  0  0  0  0  0999 V2000
    1.2124    2.1993    0.0000 C   0  0  0  0  0  0  0  0  0  0  0  0
    2.4249    1.4993    0.0000 C   0  0  0  0  0  0  0  0  0  0  0  0
    3.6373    2.1993    0.0000 C   0  0  0  0  0  0  0  0  0  0  0  0
    3.6373    3.5993    0.0000 C   0  0  0  0  0  0  0  0  0  0  0  0
    2.4249    4.2993    0.0000 C   0  0  0  0  0  0  0  0  0  0  0  0
    1.2124    3.5993    0.0000 C   0  0  0  0  0  0  0  0  0  0  0  0
    4.8497    1.4993    0.0000 N   0  0  0  0  0  0  0  0  0  0  0  0
    5.8397    2.1000    0.0000 C   0  0  0  0  0  0  0  0  0  0  0  0
    7.0521    1.4000    0.0000 N   0  0  0  0  0  0  0  0  0  0  0  0
    5.8397    3.5000    0.0000 O   0  0  0  0  0  0  0  0  0  0  0  0
    8.0421    2.0007    0.0000 C   0  0  0  0  0  0  0  0  0  0  0  0
    9.2545    1.3007    0.0000 C   0  0  0  0  0  0  0  0  0  0  0  0
    0.0000    1.4993    0.0000 Cl  0  0  0  0  0  0  0  0  0  0  0  0
   10.4669    2.0007    0.0000 C   0  0  0  0  0  0  0  0  0  0  0  0
   11.4569    1.4000    0.0000 C   0  0  0  0  0  0  0  0  0  0  0  0
   12.6693    2.1000    0.0000 O   0  0  0  0  0  0  0  0  0  0  0  0
   11.4569    0.0000    0.0000 O   0  0  0  0  0  0  0  0  0  0  0  0
   13.8818    1.4000    0.0000 C   0  0  0  0  0  0  0  0  0  0  0  0
   15.0942    2.1000    0.0000 C   0  0  0  0  0  0  0  0  0  0  0  0
  1  2  2  0  0  0  0
  2  3  1  0  0  0  0
  3  4  2  0  0  0  0
  4  5  1  0  0  0  0
  5  6  2  0  0  0  0
  6  1  1  0  0  0  0
  3  7  1  0  0  0  0
  7  8  1  0  0  0  0
  8  9  1  0  0  0  0
  8 10  2  0  0  0  0
  9 11  1  0  0  0  0
 11 12  1  0  0  0  0
  1 13  1  0  0  0  0
 12 14  1  0  0  0  0
 14 15  1  0  0  0  0
 15 16  1  0  0  0  0
 15 17  2  0  0  0  0
 16 18  1  0  0  0  0
 18 19  1  0  0  0  0
M  END
> <Molecule Name>
735

> <CDD Number>
CDD-16040

> <Human_sEH_IC50_uM>
26.0

> <Mouse_sEH_IC50_uM>
27.0

$$$$

SketchEl molfile

 34 35  0  0  0  0  0  0  0  0999 V2000
    1.2124    2.8993    0.0000 C   0  0  0  0  0  0  0  0  0  0  0  0
    2.4249    2.1993    0.0000 C   0  0  0  0  0  0  0  0  0  0  0  0
    3.6373    2.8993    0.0000 C   0  0  0  0  0  0  0  0  0  0  0  0
    3.6373    4.2993    0.0000 C   0  0  0  0  0  0  0  0  0  0  0  0
    2.4249    4.9993    0.0000 C   0  0  0  0  0  0  0  0  0  0  0  0
    1.2124    4.2993    0.0000 C   0  0  0  0  0  0  0  0  0  0  0  0
    4.8497    2.1993    0.0000 N   0  0  0  0  0  0  0  0  0  0  0  0
    5.8397    2.8000    0.0000 C   0  0  0  0  0  0  0  0  0  0  0  0
    7.0521    2.1000    0.0000 N   0  0  0  0  0  0  0  0  0  0  0  0
    5.8397    4.2000    0.0000 O   0  0  0  0  0  0  0  0  0  0  0  0
    8.0421    2.7007    0.0000 C   0  0  0  0  0  0  0  0  0  0  0  0
    9.2545    2.0007    0.0000 C   0  0  0  0  0  0  0  0  0  0  0  0
    0.0000    2.1993    0.0000 Cl  0  0  0  0  0  0  0  0  0  0  0  0
   10.4669    2.7007    0.0000 C   0  0  0  0  0  0  0  0  0  0  0  0
   11.4569    2.1000    0.0000 C   0  0  0  0  0  0  0  0  0  0  0  0
   12.6693    2.8000    0.0000 C   0  0  0  0  0  0  0  0  0  0  0  0
   13.8818    2.1000    0.0000 C   0  0  0  0  0  0  0  0  0  0  0  0
   15.0942    2.8000    0.0000 C   0  0  0  0  0  0  0  0  0  0  0  0
   16.3066    2.1000    0.0000 C   0  0  0  0  0  0  0  0  0  0  0  0
   17.5191    2.8000    0.0000 C   0  0  0  0  0  0  0  0  0  0  0  0
   18.7315    2.1000    0.0000 C   0  0  0  0  0  0  0  0  0  0  0  0
   19.9439    2.8000    0.0000 C   0  0  0  0  0  0  0  0  0  0  0  0
   21.1564    2.1000    0.0000 C   0  0  0  0  0  0  0  0  0  0  0  0
   22.3688    2.8000    0.0000 N   0  0  0  0  0  0  0  0  0  0  0  0
   23.5813    2.1000    0.0000 C   0  0  0  0  0  0  0  0  0  0  0  0
   24.7937    2.8000    0.0000 N   0  0  0  0  0  0  0  0  0  0  0  0
   23.5813    0.7000    0.0000 O   0  0  0  0  0  0  0  0  0  0  0  0
   26.0061    2.1000    0.0000 C   0  0  0  0  0  0  0  0  0  0  0  0
   26.0061    0.7000    0.0000 C   0  0  0  0  0  0  0  0  0  0  0  0
   27.2186    0.0000    0.0000 C   0  0  0  0  0  0  0  0  0  0  0  0
   28.4310    0.7000    0.0000 C   0  0  0  0  0  0  0  0  0  0  0  0
   28.4310    2.1000    0.0000 C   0  0  0  0  0  0  0  0  0  0  0  0
   27.2186    2.8000    0.0000 C   0  0  0  0  0  0  0  0  0  0  0  0
   29.6434    2.8000    0.0000 Cl  0  0  0  0  0  0  0  0  0  0  0  0
  1  2  2  0  0  0  0
  2  3  1  0  0  0  0
  3  4  2  0  0  0  0
  4  5  1  0  0  0  0
  5  6  2  0  0  0  0
  6  1  1  0  0  0  0
  3  7  1  0  0  0  0
  7  8  1  0  0  0  0
  8  9  1  0  0  0  0
  8 10  2  0  0  0  0
  9 11  1  0  0  0  0
 11 12  1  0  0  0  0
  1 13  1  0  0  0  0
 12 14  1  0  0  0  0
 14 15  1  0  0  0  0
 15 16  1  0  0  0  0
 16 17  1  0  0  0  0
 17 18  1  0  0  0  0
 18 19  1  0  0  0  0
 19 20  1  0  0  0  0
 20 21  1  0  0  0  0
 21 22  1  0  0  0  0
 22 23  1  0  0  0  0
 23 24  1  0  0  0  0
 24 25  1  0  0  0  0
 25 26  1  0  0  0  0
 25 27  2  0  0  0  0
 26 28  1  0  0  0  0
 28 29  2  0  0  0  0
 29 30  1  0  0  0  0
 30 31  2  0  0  0  0
 31 32  1  0  0  0  0
 32 33  2  0  0  0  0
 33 28  1  0  0  0  0
 32 34  1  0  0  0  0
M  END
> <Molecule Name>
734

> <CDD Number>
CDD-16039

> <Human_sEH_IC50_uM>
16.0

> <Mouse_sEH_IC50_uM>
100.0

$$$$

SketchEl molfile

 19 20  0  0  0  0  0  0  0  0999 V2000
    0.9899    1.7679    0.0000 C   0  0  0  0  0  0  0  0  0  0  0  0
    0.0000    0.7779    0.0000 C   0  0  0  0  0  0  0  0  0  0  0  0
    1.3998    0.7779    0.0000 C   0  0  0  0  0  0  0  0  0  0  0  0
    2.6161    0.0845    0.0000 C   0  0  0  0  0  0  0  0  0  0  0  0
    3.6062    1.0744    0.0000 C   0  0  0  0  0  0  0  0  0  0  0  0
    2.2063    1.0744    0.0000 C   0  0  0  0  0  0  0  0  0  0  0  0
    4.8997    1.6101    0.0000 C   0  0  0  0  0  0  0  0  0  0  0  0
    6.0103    0.7578    0.0000 N   0  0  0  0  0  0  0  0  0  0  0  0
    7.3038    1.2935    0.0000 P   0  0  0  0  0  0  0  0  0  0  0  0
    8.5972    1.8291    0.0000 N   0  0  0  0  0  0  0  0  0  0  0  0
    7.8394    0.0000    0.0000 C   0  0  0  0  0  0  0  0  0  0  0  0
    6.7681    2.5869    0.0000 O   0  0  0  0  0  0  0  0  0  0  0  0
    8.7800    3.2172    0.0000 C   0  0  0  0  0  0  0  0  0  0  0  0
   10.0735    3.7528    0.0000 C   0  0  0  0  0  0  0  0  0  0  0  0
   11.2859    3.0528    0.0000 C   0  0  0  0  0  0  0  0  0  0  0  0
   10.9012    4.3989    0.0000 C   0  0  0  0  0  0  0  0  0  0  0  0
   11.2637    5.7512    0.0000 C   0  0  0  0  0  0  0  0  0  0  0  0
   10.0513    6.4514    0.0000 C   0  0  0  0  0  0  0  0  0  0  0  0
   10.4359    5.1051    0.0000 C   0  0  0  0  0  0  0  0  0  0  0  0
  1  2  1  0  0  0  0
  2  3  1  0  0  0  0
  3  4  1  0  0  0  0
  4  5  1  0  0  0  0
  5  6  1  0  0  0  0
  6  1  1  0  0  0  0
  5  7  1  0  0  0  0
  7  8  1  0  0  0  0
  8  9  1  0  0  0  0
  9 10  1  0  0  0  0
  9 11  1  0  0  0  0
  9 12  2  0  0  0  0
 10 13  1  0  0  0  0
 13 14  1  0  0  0  0
 14 15  1  0  0  0  0
 15 16  1  0  0  0  0
 16 17  1  0  0  0  0
 17 18  1  0  0  0  0
 18 19  1  0  0  0  0
 19 14  1  0  0  0  0
M  END
> <Molecule Name>
723

> <CDD Number>
CDD-15661

> <Human_sEH_IC50_uM>
16.0

> <Mouse_sEH_IC50_uM>
31.0

$$$$

SketchEl molfile

 23 25  0  0  0  0  0  0  0  0999 V2000
    0.9900    3.4935    0.0000 C   0  0  0  0  0  0  0  0  0  0  0  0
    0.0000    2.5035    0.0000 C   0  0  0  0  0  0  0  0  0  0  0  0
    1.3998    2.5035    0.0000 C   0  0  0  0  0  0  0  0  0  0  0  0
    2.6161    1.8101    0.0000 C   0  0  0  0  0  0  0  0  0  0  0  0
    3.6062    2.8000    0.0000 C   0  0  0  0  0  0  0  0  0  0  0  0
    2.2063    2.8000    0.0000 C   0  0  0  0  0  0  0  0  0  0  0  0
    4.8186    2.1000    0.0000 N   0  0  0  0  0  0  0  0  0  0  0  0
    6.0311    2.8000    0.0000 C   0  0  0  0  0  0  0  0  0  0  0  0
    7.2435    2.1000    0.0000 O   0  0  0  0  0  0  0  0  0  0  0  0
    6.0311    4.2000    0.0000 O   0  0  0  0  0  0  0  0  0  0  0  0
    8.4559    2.8000    0.0000 C   0  0  0  0  0  0  0  0  0  0  0  0
    9.6684    2.1000    0.0000 C   0  0  0  0  0  0  0  0  0  0  0  0
    8.4559    4.2000    0.0000 C   0  0  0  0  0  0  0  0  0  0  0  0
    9.6684    4.9000    0.0000 N   0  0  0  0  0  0  0  0  0  0  0  0
    9.6684    0.7000    0.0000 C   0  0  0  0  0  0  0  0  0  0  0  0
   10.8808    0.0000    0.0000 C   0  0  0  0  0  0  0  0  0  0  0  0
   12.0932    0.7000    0.0000 C   0  0  0  0  0  0  0  0  0  0  0  0
   12.0932    2.1000    0.0000 C   0  0  0  0  0  0  0  0  0  0  0  0
   10.8808    2.8000    0.0000 C   0  0  0  0  0  0  0  0  0  0  0  0
   13.3057    0.0000    0.0000 C   0  0  0  0  0  0  0  0  0  0  0  0
   14.5181    0.7000    0.0000 C   0  0  0  0  0  0  0  0  0  0  0  0
   14.5181    2.1000    0.0000 C   0  0  0  0  0  0  0  0  0  0  0  0
   13.3057    2.8000    0.0000 C   0  0  0  0  0  0  0  0  0  0  0  0
  1  2  1  0  0  0  0
  2  3  1  0  0  0  0
  3  4  1  0  0  0  0
  4  5  1  0  0  0  0
  5  6  1  0  0  0  0
  6  1  1  0  0  0  0
  5  7  1  0  0  0  0
  7  8  1  0  0  0  0
  8  9  1  0  0  0  0
  8 10  2  0  0  0  0
  9 11  1  0  0  0  0
 11 12  1  0  0  0  0
 11 13  1  0  0  0  0
 13 14  3  0  0  0  0
 12 15  2  0  0  0  0
 15 16  1  0  0  0  0
 16 17  2  0  0  0  0
 17 18  1  0  0  0  0
 18 19  2  0  0  0  0
 19 12  1  0  0  0  0
 17 20  1  0  0  0  0
 20 21  2  0  0  0  0
 21 22  1  0  0  0  0
 22 23  2  0  0  0  0
 23 18  1  0  0  0  0
M  END
> <Molecule Name>
722

> <CDD Number>
CDD-16100

> <Human_sEH_IC50_uM>
2.8

> <Mouse_sEH_IC50_uM>
29.0

$$$$

SketchEl molfile

 21 21  0  0  0  0  0  0  0  0999 V2000
    3.6373    2.8000    0.0000 C   0  0  0  0  0  0  0  0  0  0  0  0
    4.8497    2.1000    0.0000 N   0  0  0  0  0  0  0  0  0  0  0  0
    6.0622    2.8000    0.0000 C   0  0  0  0  0  0  0  0  0  0  0  0
    7.2746    2.1000    0.0000 N   0  0  0  0  0  0  0  0  0  0  0  0
    6.0622    4.2000    0.0000 O   0  0  0  0  0  0  0  0  0  0  0  0
    2.4249    2.1000    0.0000 C   0  0  0  0  0  0  0  0  0  0  0  0
    1.2124    2.8000    0.0000 C   0  0  0  0  0  0  0  0  0  0  0  0
    0.0000    2.1000    0.0000 C   0  0  0  0  0  0  0  0  0  0  0  0
    0.0000    0.7000    0.0000 C   0  0  0  0  0  0  0  0  0  0  0  0
    1.2124    0.0000    0.0000 C   0  0  0  0  0  0  0  0  0  0  0  0
    2.4249    0.7000    0.0000 C   0  0  0  0  0  0  0  0  0  0  0  0
    8.2646    2.7007    0.0000 C   0  0  0  0  0  0  0  0  0  0  0  0
    9.4770    2.0007    0.0000 C   0  0  0  0  0  0  0  0  0  0  0  0
   10.6894    2.7007    0.0000 C   0  0  0  0  0  0  0  0  0  0  0  0
   10.6894    4.1007    0.0000 C   0  0  0  0  0  0  0  0  0  0  0  0
    9.4770    4.8007    0.0000 C   0  0  0  0  0  0  0  0  0  0  0  0
    8.2646    4.1007    0.0000 C   0  0  0  0  0  0  0  0  0  0  0  0
   11.9019    4.8007    0.0000 C   0  0  0  0  0  0  0  0  0  0  0  0
    3.6373    4.2000    0.0000 C   0  0  0  0  0  0  0  0  0  0  0  0
    9.4770    0.6007    0.0000 F   0  0  0  0  0  0  0  0  0  0  0  0
    3.5336    2.0687    0.0000 S   0  0  0  0  0  0  0  0  0  0  0  0
  1  2  1  0  0  0  0
  2  3  1  0  0  0  0
  3  4  1  0  0  0  0
  3  5  2  0  0  0  0
  1  6  1  0  0  0  0
  6  7  2  0  0  0  0
  7  8  1  0  0  0  0
  8  9  2  0  0  0  0
  9 10  1  0  0  0  0
 10 11  2  0  0  0  0
 11  6  1  0  0  0  0
  4 12  1  0  0  0  0
 12 13  2  0  0  0  0
 13 14  1  0  0  0  0
 14 15  2  0  0  0  0
 15 16  1  0  0  0  0
 16 17  2  0  0  0  0
 17 12  1  0  0  0  0
 15 18  1  0  0  0  0
  1 19  1  6  0  0  0
 13 20  1  0  0  0  0
M  END
> <Molecule Name>
721

> <CDD Number>
CDD-16026

> <Human_sEH_IC50_uM>
1.9

> <Mouse_sEH_IC50_uM>
4.1

$$$$

SketchEl molfile

 20 21  0  0  0  0  0  0  0  0999 V2000
    3.6373    2.8000    0.0000 C   0  0  0  0  0  0  0  0  0  0  0  0
    4.8497    2.1000    0.0000 N   0  0  0  0  0  0  0  0  0  0  0  0
    6.0622    2.8000    0.0000 C   0  0  0  0  0  0  0  0  0  0  0  0
    7.2746    2.1000    0.0000 N   0  0  0  0  0  0  0  0  0  0  0  0
    6.0622    4.2000    0.0000 O   0  0  0  0  0  0  0  0  0  0  0  0
    2.4249    2.1000    0.0000 C   0  0  0  0  0  0  0  0  0  0  0  0
    1.2124    2.8000    0.0000 C   0  0  0  0  0  0  0  0  0  0  0  0
    0.0000    2.1000    0.0000 C   0  0  0  0  0  0  0  0  0  0  0  0
    0.0000    0.7000    0.0000 C   0  0  0  0  0  0  0  0  0  0  0  0
    1.2124    0.0000    0.0000 C   0  0  0  0  0  0  0  0  0  0  0  0
    2.4249    0.7000    0.0000 C   0  0  0  0  0  0  0  0  0  0  0  0
    8.2646    2.7007    0.0000 C   0  0  0  0  0  0  0  0  0  0  0  0
    3.6373    4.2000    0.0000 C   0  0  0  0  0  0  0  0  0  0  0  0
    9.4770    2.0007    0.0000 C   0  0  0  0  0  0  0  0  0  0  0  0
   10.6894    2.7007    0.0000 C   0  0  0  0  0  0  0  0  0  0  0  0
   10.6894    4.1007    0.0000 C   0  0  0  0  0  0  0  0  0  0  0  0
    9.4770    4.8007    0.0000 C   0  0  0  0  0  0  0  0  0  0  0  0
    8.2646    4.1007    0.0000 C   0  0  0  0  0  0  0  0  0  0  0  0
   11.9019    4.8007    0.0000 C   0  0  0  0  0  0  0  0  0  0  0  0
    9.4770    0.6007    0.0000 F   0  0  0  0  0  0  0  0  0  0  0  0
  1  2  1  0  0  0  0
  2  3  1  0  0  0  0
  3  4  1  0  0  0  0
  3  5  2  0  0  0  0
  1  6  1  0  0  0  0
  6  7  2  0  0  0  0
  7  8  1  0  0  0  0
  8  9  2  0  0  0  0
  9 10  1  0  0  0  0
 10 11  2  0  0  0  0
 11  6  1  0  0  0  0
  4 12  1  0  0  0  0
  1 13  1  1  0  0  0
 12 14  2  0  0  0  0
 14 15  1  0  0  0  0
 15 16  2  0  0  0  0
 16 17  1  0  0  0  0
 17 18  2  0  0  0  0
 18 12  1  0  0  0  0
 16 19  1  0  0  0  0
 14 20  1  0  0  0  0
M  END
> <Molecule Name>
720

> <CDD Number>
CDD-16020

> <Human_sEH_IC50_uM>
5.7

> <Mouse_sEH_IC50_uM>
0.05

$$$$

SketchEl molfile

 21 21  0  0  0  0  0  0  0  0999 V2000
    3.6373    2.8000    0.0000 C   0  0  0  0  0  0  0  0  0  0  0  0
    4.8497    2.1000    0.0000 N   0  0  0  0  0  0  0  0  0  0  0  0
    6.0622    2.8000    0.0000 C   0  0  0  0  0  0  0  0  0  0  0  0
    7.2746    2.1000    0.0000 N   0  0  0  0  0  0  0  0  0  0  0  0
    6.0622    4.2000    0.0000 O   0  0  0  0  0  0  0  0  0  0  0  0
    2.4249    2.1000    0.0000 C   0  0  0  0  0  0  0  0  0  0  0  0
    1.2124    2.8000    0.0000 C   0  0  0  0  0  0  0  0  0  0  0  0
    0.0000    2.1000    0.0000 C   0  0  0  0  0  0  0  0  0  0  0  0
    0.0000    0.7000    0.0000 C   0  0  0  0  0  0  0  0  0  0  0  0
    1.2124    0.0000    0.0000 C   0  0  0  0  0  0  0  0  0  0  0  0
    2.4249    0.7000    0.0000 C   0  0  0  0  0  0  0  0  0  0  0  0
    8.2646    2.7007    0.0000 C   0  0  0  0  0  0  0  0  0  0  0  0
    9.4770    2.0007    0.0000 C   0  0  0  0  0  0  0  0  0  0  0  0
   10.6894    2.7007    0.0000 C   0  0  0  0  0  0  0  0  0  0  0  0
   10.6894    4.1007    0.0000 C   0  0  0  0  0  0  0  0  0  0  0  0
    9.4770    4.8007    0.0000 C   0  0  0  0  0  0  0  0  0  0  0  0
    8.2646    4.1007    0.0000 C   0  0  0  0  0  0  0  0  0  0  0  0
    3.6373    4.2000    0.0000 C   0  0  0  0  0  0  0  0  0  0  0  0
   11.9019    2.0007    0.0000 Cl  0  0  0  0  0  0  0  0  0  0  0  0
    9.4770    0.6007    0.0000 Cl  0  0  0  0  0  0  0  0  0  0  0  0
    3.5336    2.0687    0.0000 S   0  0  0  0  0  0  0  0  0  0  0  0
  1  2  1  0  0  0  0
  2  3  1  0  0  0  0
  3  4  1  0  0  0  0
  3  5  2  0  0  0  0
  1  6  1  0  0  0  0
  6  7  2  0  0  0  0
  7  8  1  0  0  0  0
  8  9  2  0  0  0  0
  9 10  1  0  0  0  0
 10 11  2  0  0  0  0
 11  6  1  0  0  0  0
  4 12  1  0  0  0  0
 12 13  2  0  0  0  0
 13 14  1  0  0  0  0
 14 15  2  0  0  0  0
 15 16  1  0  0  0  0
 16 17  2  0  0  0  0
 17 12  1  0  0  0  0
  1 18  1  6  0  0  0
 14 19  1  0  0  0  0
 13 20  1  0  0  0  0
M  END
> <Molecule Name>
719

> <CDD Number>
CDD-16025

> <Human_sEH_IC50_uM>
1.4

> <Mouse_sEH_IC50_uM>
6.4

$$$$

SketchEl molfile

 20 21  0  0  0  0  0  0  0  0999 V2000
    3.6373    2.8000    0.0000 C   0  0  0  0  0  0  0  0  0  0  0  0
    4.8497    2.1000    0.0000 N   0  0  0  0  0  0  0  0  0  0  0  0
    6.0622    2.8000    0.0000 C   0  0  0  0  0  0  0  0  0  0  0  0
    7.2746    2.1000    0.0000 N   0  0  0  0  0  0  0  0  0  0  0  0
    6.0622    4.2000    0.0000 O   0  0  0  0  0  0  0  0  0  0  0  0
    2.4249    2.1000    0.0000 C   0  0  0  0  0  0  0  0  0  0  0  0
    1.2124    2.8000    0.0000 C   0  0  0  0  0  0  0  0  0  0  0  0
    0.0000    2.1000    0.0000 C   0  0  0  0  0  0  0  0  0  0  0  0
    0.0000    0.7000    0.0000 C   0  0  0  0  0  0  0  0  0  0  0  0
    1.2124    0.0000    0.0000 C   0  0  0  0  0  0  0  0  0  0  0  0
    2.4249    0.7000    0.0000 C   0  0  0  0  0  0  0  0  0  0  0  0
    8.2646    2.7007    0.0000 C   0  0  0  0  0  0  0  0  0  0  0  0
    3.6373    4.2000    0.0000 C   0  0  0  0  0  0  0  0  0  0  0  0
    9.4770    2.0007    0.0000 C   0  0  0  0  0  0  0  0  0  0  0  0
   10.6894    2.7007    0.0000 C   0  0  0  0  0  0  0  0  0  0  0  0
   10.6894    4.1007    0.0000 C   0  0  0  0  0  0  0  0  0  0  0  0
    9.4770    4.8007    0.0000 C   0  0  0  0  0  0  0  0  0  0  0  0
    8.2646    4.1007    0.0000 C   0  0  0  0  0  0  0  0  0  0  0  0
   11.9019    2.0007    0.0000 Cl  0  0  0  0  0  0  0  0  0  0  0  0
    9.4770    0.6007    0.0000 Cl  0  0  0  0  0  0  0  0  0  0  0  0
  1  2  1  0  0  0  0
  2  3  1  0  0  0  0
  3  4  1  0  0  0  0
  3  5  2  0  0  0  0
  1  6  1  0  0  0  0
  6  7  2  0  0  0  0
  7  8  1  0  0  0  0
  8  9  2  0  0  0  0
  9 10  1  0  0  0  0
 10 11  2  0  0  0  0
 11  6  1  0  0  0  0
  4 12  1  0  0  0  0
  1 13  1  1  0  0  0
 12 14  2  0  0  0  0
 14 15  1  0  0  0  0
 15 16  2  0  0  0  0
 16 17  1  0  0  0  0
 17 18  2  0  0  0  0
 18 12  1  0  0  0  0
 15 19  1  0  0  0  0
 14 20  1  0  0  0  0
M  END
> <Molecule Name>
718

> <CDD Number>
CDD-16019

> <Human_sEH_IC50_uM>
7.2

> <Mouse_sEH_IC50_uM>
2.05

$$$$

SketchEl molfile

 20 20  0  0  0  0  0  0  0  0999 V2000
    3.6373    2.8000    0.0000 C   0  0  0  0  0  0  0  0  0  0  0  0
    4.8497    2.1000    0.0000 N   0  0  0  0  0  0  0  0  0  0  0  0
    6.0622    2.8000    0.0000 C   0  0  0  0  0  0  0  0  0  0  0  0
    7.2746    2.1000    0.0000 N   0  0  0  0  0  0  0  0  0  0  0  0
    6.0622    4.2000    0.0000 O   0  0  0  0  0  0  0  0  0  0  0  0
    2.4249    2.1000    0.0000 C   0  0  0  0  0  0  0  0  0  0  0  0
    1.2124    2.8000    0.0000 C   0  0  0  0  0  0  0  0  0  0  0  0
    0.0000    2.1000    0.0000 C   0  0  0  0  0  0  0  0  0  0  0  0
    0.0000    0.7000    0.0000 C   0  0  0  0  0  0  0  0  0  0  0  0
    1.2124    0.0000    0.0000 C   0  0  0  0  0  0  0  0  0  0  0  0
    2.4249    0.7000    0.0000 C   0  0  0  0  0  0  0  0  0  0  0  0
    8.2646    2.7007    0.0000 C   0  0  0  0  0  0  0  0  0  0  0  0
    9.4770    2.0007    0.0000 C   0  0  0  0  0  0  0  0  0  0  0  0
   10.6894    2.7007    0.0000 C   0  0  0  0  0  0  0  0  0  0  0  0
   10.6894    4.1007    0.0000 C   0  0  0  0  0  0  0  0  0  0  0  0
    9.4770    4.8007    0.0000 C   0  0  0  0  0  0  0  0  0  0  0  0
    8.2646    4.1007    0.0000 C   0  0  0  0  0  0  0  0  0  0  0  0
    3.6373    4.2000    0.0000 C   0  0  0  0  0  0  0  0  0  0  0  0
    9.4770    0.6007    0.0000 F   0  0  0  0  0  0  0  0  0  0  0  0
    3.5336    2.0687    0.0000 S   0  0  0  0  0  0  0  0  0  0  0  0
  1  2  1  0  0  0  0
  2  3  1  0  0  0  0
  3  4  1  0  0  0  0
  3  5  2  0  0  0  0
  1  6  1  0  0  0  0
  6  7  2  0  0  0  0
  7  8  1  0  0  0  0
  8  9  2  0  0  0  0
  9 10  1  0  0  0  0
 10 11  2  0  0  0  0
 11  6  1  0  0  0  0
  4 12  1  0  0  0  0
 12 13  2  0  0  0  0
 13 14  1  0  0  0  0
 14 15  2  0  0  0  0
 15 16  1  0  0  0  0
 16 17  2  0  0  0  0
 17 12  1  0  0  0  0
  1 18  1  6  0  0  0
 13 19  1  0  0  0  0
M  END
> <Molecule Name>
717

> <CDD Number>
CDD-16024

> <Human_sEH_IC50_uM>
8.6

> <Mouse_sEH_IC50_uM>
17.0

$$$$

SketchEl molfile

 19 20  0  0  0  0  0  0  0  0999 V2000
    3.6373    2.8000    0.0000 C   0  0  0  0  0  0  0  0  0  0  0  0
    4.8497    2.1000    0.0000 N   0  0  0  0  0  0  0  0  0  0  0  0
    6.0622    2.8000    0.0000 C   0  0  0  0  0  0  0  0  0  0  0  0
    7.2746    2.1000    0.0000 N   0  0  0  0  0  0  0  0  0  0  0  0
    6.0622    4.2000    0.0000 O   0  0  0  0  0  0  0  0  0  0  0  0
    2.4249    2.1000    0.0000 C   0  0  0  0  0  0  0  0  0  0  0  0
    1.2124    2.8000    0.0000 C   0  0  0  0  0  0  0  0  0  0  0  0
    0.0000    2.1000    0.0000 C   0  0  0  0  0  0  0  0  0  0  0  0
    0.0000    0.7000    0.0000 C   0  0  0  0  0  0  0  0  0  0  0  0
    1.2124    0.0000    0.0000 C   0  0  0  0  0  0  0  0  0  0  0  0
    2.4249    0.7000    0.0000 C   0  0  0  0  0  0  0  0  0  0  0  0
    8.2646    2.7007    0.0000 C   0  0  0  0  0  0  0  0  0  0  0  0
    3.6373    4.2000    0.0000 C   0  0  0  0  0  0  0  0  0  0  0  0
    9.4770    2.0007    0.0000 C   0  0  0  0  0  0  0  0  0  0  0  0
   10.6894    2.7007    0.0000 C   0  0  0  0  0  0  0  0  0  0  0  0
   10.6894    4.1007    0.0000 C   0  0  0  0  0  0  0  0  0  0  0  0
    9.4770    4.8007    0.0000 C   0  0  0  0  0  0  0  0  0  0  0  0
    8.2646    4.1007    0.0000 C   0  0  0  0  0  0  0  0  0  0  0  0
    9.4770    0.6007    0.0000 F   0  0  0  0  0  0  0  0  0  0  0  0
  1  2  1  0  0  0  0
  2  3  1  0  0  0  0
  3  4  1  0  0  0  0
  3  5  2  0  0  0  0
  1  6  1  0  0  0  0
  6  7  2  0  0  0  0
  7  8  1  0  0  0  0
  8  9  2  0  0  0  0
  9 10  1  0  0  0  0
 10 11  2  0  0  0  0
 11  6  1  0  0  0  0
  4 12  1  0  0  0  0
  1 13  1  1  0  0  0
 12 14  2  0  0  0  0
 14 15  1  0  0  0  0
 15 16  2  0  0  0  0
 16 17  1  0  0  0  0
 17 18  2  0  0  0  0
 18 12  1  0  0  0  0
 14 19  1  0  0  0  0
M  END
> <Molecule Name>
716

> <CDD Number>
CDD-16018

> <Human_sEH_IC50_uM>
12.0

> <Mouse_sEH_IC50_uM>
0.3

$$$$

SketchEl molfile

 23 23  0  0  0  0  0  0  0  0999 V2000
    3.6373    3.5993    0.0000 C   0  0  0  0  0  0  0  0  0  0  0  0
    4.8497    2.8993    0.0000 N   0  0  0  0  0  0  0  0  0  0  0  0
    6.0622    3.5993    0.0000 C   0  0  0  0  0  0  0  0  0  0  0  0
    7.2746    2.8993    0.0000 N   0  0  0  0  0  0  0  0  0  0  0  0
    6.0622    4.9993    0.0000 O   0  0  0  0  0  0  0  0  0  0  0  0
    2.4249    2.8993    0.0000 C   0  0  0  0  0  0  0  0  0  0  0  0
    1.2124    3.5993    0.0000 C   0  0  0  0  0  0  0  0  0  0  0  0
    0.0000    2.8993    0.0000 C   0  0  0  0  0  0  0  0  0  0  0  0
    0.0000    1.4993    0.0000 C   0  0  0  0  0  0  0  0  0  0  0  0
    1.2124    0.7993    0.0000 C   0  0  0  0  0  0  0  0  0  0  0  0
    2.4249    1.4993    0.0000 C   0  0  0  0  0  0  0  0  0  0  0  0
    8.2646    3.5000    0.0000 C   0  0  0  0  0  0  0  0  0  0  0  0
    9.4770    2.8000    0.0000 C   0  0  0  0  0  0  0  0  0  0  0  0
   10.6894    3.5000    0.0000 C   0  0  0  0  0  0  0  0  0  0  0  0
   10.6894    4.9000    0.0000 C   0  0  0  0  0  0  0  0  0  0  0  0
    9.4770    5.6000    0.0000 C   0  0  0  0  0  0  0  0  0  0  0  0
    8.2646    4.9000    0.0000 C   0  0  0  0  0  0  0  0  0  0  0  0
    3.6373    4.9993    0.0000 C   0  0  0  0  0  0  0  0  0  0  0  0
    9.4770    1.4000    0.0000 C   0  0  0  0  0  0  0  0  0  0  0  0
    9.4770    0.0000    0.0000 C   0  0  0  0  0  0  0  0  0  0  0  0
   10.6894    0.7000    0.0000 C   0  0  0  0  0  0  0  0  0  0  0  0
    8.2646    0.7000    0.0000 C   0  0  0  0  0  0  0  0  0  0  0  0
    3.5120    3.0331    0.0000 S   0  0  0  0  0  0  0  0  0  0  0  0
  1  2  1  0  0  0  0
  2  3  1  0  0  0  0
  3  4  1  0  0  0  0
  3  5  2  0  0  0  0
  1  6  1  0  0  0  0
  6  7  2  0  0  0  0
  7  8  1  0  0  0  0
  8  9  2  0  0  0  0
  9 10  1  0  0  0  0
 10 11  2  0  0  0  0
 11  6  1  0  0  0  0
  4 12  1  0  0  0  0
 12 13  2  0  0  0  0
 13 14  1  0  0  0  0
 14 15  2  0  0  0  0
 15 16  1  0  0  0  0
 16 17  2  0  0  0  0
 17 12  1  0  0  0  0
  1 18  1  6  0  0  0
 13 19  1  0  0  0  0
 19 20  1  0  0  0  0
 19 21  1  0  0  0  0
 19 22  1  0  0  0  0
M  END
> <Molecule Name>
715

> <CDD Number>
CDD-16023

> <Human_sEH_IC50_uM>
100.0

> <Mouse_sEH_IC50_uM>
100.0

$$$$

SketchEl molfile

 22 23  0  0  0  0  0  0  0  0999 V2000
    3.6373    3.5993    0.0000 C   0  0  0  0  0  0  0  0  0  0  0  0
    4.8497    2.8993    0.0000 N   0  0  0  0  0  0  0  0  0  0  0  0
    6.0622    3.5993    0.0000 C   0  0  0  0  0  0  0  0  0  0  0  0
    7.2746    2.8993    0.0000 N   0  0  0  0  0  0  0  0  0  0  0  0
    6.0622    4.9993    0.0000 O   0  0  0  0  0  0  0  0  0  0  0  0
    2.4249    2.8993    0.0000 C   0  0  0  0  0  0  0  0  0  0  0  0
    1.2124    3.5993    0.0000 C   0  0  0  0  0  0  0  0  0  0  0  0
    0.0000    2.8993    0.0000 C   0  0  0  0  0  0  0  0  0  0  0  0
    0.0000    1.4993    0.0000 C   0  0  0  0  0  0  0  0  0  0  0  0
    1.2124    0.7993    0.0000 C   0  0  0  0  0  0  0  0  0  0  0  0
    2.4249    1.4993    0.0000 C   0  0  0  0  0  0  0  0  0  0  0  0
    8.2646    3.5000    0.0000 C   0  0  0  0  0  0  0  0  0  0  0  0
    3.6373    4.9993    0.0000 C   0  0  0  0  0  0  0  0  0  0  0  0
    9.4770    2.8000    0.0000 C   0  0  0  0  0  0  0  0  0  0  0  0
   10.6894    3.5000    0.0000 C   0  0  0  0  0  0  0  0  0  0  0  0
   10.6894    4.9000    0.0000 C   0  0  0  0  0  0  0  0  0  0  0  0
    9.4770    5.6000    0.0000 C   0  0  0  0  0  0  0  0  0  0  0  0
    8.2646    4.9000    0.0000 C   0  0  0  0  0  0  0  0  0  0  0  0
    9.4770    1.4000    0.0000 C   0  0  0  0  0  0  0  0  0  0  0  0
    8.2646    0.7000    0.0000 C   0  0  0  0  0  0  0  0  0  0  0  0
   10.6894    0.7000    0.0000 C   0  0  0  0  0  0  0  0  0  0  0  0
    9.4770    0.0000    0.0000 C   0  0  0  0  0  0  0  0  0  0  0  0
  1  2  1  0  0  0  0
  2  3  1  0  0  0  0
  3  4  1  0  0  0  0
  3  5  2  0  0  0  0
  1  6  1  0  0  0  0
  6  7  2  0  0  0  0
  7  8  1  0  0  0  0
  8  9  2  0  0  0  0
  9 10  1  0  0  0  0
 10 11  2  0  0  0  0
 11  6  1  0  0  0  0
  4 12  1  0  0  0  0
  1 13  1  1  0  0  0
 12 14  2  0  0  0  0
 14 15  1  0  0  0  0
 15 16  2  0  0  0  0
 16 17  1  0  0  0  0
 17 18  2  0  0  0  0
 18 12  1  0  0  0  0
 14 19  1  0  0  0  0
 19 20  1  0  0  0  0
 19 21  1  0  0  0  0
 19 22  1  0  0  0  0
M  END
> <Molecule Name>
714

> <CDD Number>
CDD-16017

> <Human_sEH_IC50_uM>
100.0

> <Mouse_sEH_IC50_uM>
100.0

$$$$

SketchEl molfile

 22 22  0  0  0  0  0  0  0  0999 V2000
    3.6373    3.1893    0.0000 C   0  0  0  0  0  0  0  0  0  0  0  0
    4.8497    2.4893    0.0000 N   0  0  0  0  0  0  0  0  0  0  0  0
    6.0622    3.1893    0.0000 C   0  0  0  0  0  0  0  0  0  0  0  0
    7.2746    2.4893    0.0000 N   0  0  0  0  0  0  0  0  0  0  0  0
    6.0622    4.5893    0.0000 O   0  0  0  0  0  0  0  0  0  0  0  0
    2.4249    2.4893    0.0000 C   0  0  0  0  0  0  0  0  0  0  0  0
    1.2124    3.1893    0.0000 C   0  0  0  0  0  0  0  0  0  0  0  0
    0.0000    2.4893    0.0000 C   0  0  0  0  0  0  0  0  0  0  0  0
    0.0000    1.0893    0.0000 C   0  0  0  0  0  0  0  0  0  0  0  0
    1.2124    0.3893    0.0000 C   0  0  0  0  0  0  0  0  0  0  0  0
    2.4249    1.0893    0.0000 C   0  0  0  0  0  0  0  0  0  0  0  0
    8.2646    3.0899    0.0000 C   0  0  0  0  0  0  0  0  0  0  0  0
    9.4770    2.3899    0.0000 C   0  0  0  0  0  0  0  0  0  0  0  0
   10.6894    3.0899    0.0000 C   0  0  0  0  0  0  0  0  0  0  0  0
   10.6894    4.4900    0.0000 C   0  0  0  0  0  0  0  0  0  0  0  0
    9.4770    5.1899    0.0000 C   0  0  0  0  0  0  0  0  0  0  0  0
    8.2646    4.4900    0.0000 C   0  0  0  0  0  0  0  0  0  0  0  0
    3.6373    4.5893    0.0000 C   0  0  0  0  0  0  0  0  0  0  0  0
    9.4770    0.9899    0.0000 C   0  0  0  0  0  0  0  0  0  0  0  0
   10.4669    0.0000    0.0000 C   0  0  0  0  0  0  0  0  0  0  0  0
    8.4870    0.0000    0.0000 C   0  0  0  0  0  0  0  0  0  0  0  0
    3.5336    2.4580    0.0000 S   0  0  0  0  0  0  0  0  0  0  0  0
  1  2  1  0  0  0  0
  2  3  1  0  0  0  0
  3  4  1  0  0  0  0
  3  5  2  0  0  0  0
  1  6  1  0  0  0  0
  6  7  2  0  0  0  0
  7  8  1  0  0  0  0
  8  9  2  0  0  0  0
  9 10  1  0  0  0  0
 10 11  2  0  0  0  0
 11  6  1  0  0  0  0
  4 12  1  0  0  0  0
 12 13  2  0  0  0  0
 13 14  1  0  0  0  0
 14 15  2  0  0  0  0
 15 16  1  0  0  0  0
 16 17  2  0  0  0  0
 17 12  1  0  0  0  0
  1 18  1  6  0  0  0
 13 19  1  0  0  0  0
 19 20  1  0  0  0  0
 19 21  1  0  0  0  0
M  END
> <Molecule Name>
713

> <CDD Number>
CDD-16022

> <Human_sEH_IC50_uM>
16.0

> <Mouse_sEH_IC50_uM>
19.0

$$$$

SketchEl molfile

 21 22  0  0  0  0  0  0  0  0999 V2000
    3.6373    2.8993    0.0000 C   0  0  0  0  0  0  0  0  0  0  0  0
    4.8497    2.1993    0.0000 N   0  0  0  0  0  0  0  0  0  0  0  0
    6.0622    2.8993    0.0000 C   0  0  0  0  0  0  0  0  0  0  0  0
    7.2746    2.1993    0.0000 N   0  0  0  0  0  0  0  0  0  0  0  0
    6.0622    4.2993    0.0000 O   0  0  0  0  0  0  0  0  0  0  0  0
    2.4249    2.1993    0.0000 C   0  0  0  0  0  0  0  0  0  0  0  0
    1.2124    2.8993    0.0000 C   0  0  0  0  0  0  0  0  0  0  0  0
    0.0000    2.1993    0.0000 C   0  0  0  0  0  0  0  0  0  0  0  0
    0.0000    0.7993    0.0000 C   0  0  0  0  0  0  0  0  0  0  0  0
    1.2124    0.0993    0.0000 C   0  0  0  0  0  0  0  0  0  0  0  0
    2.4249    0.7993    0.0000 C   0  0  0  0  0  0  0  0  0  0  0  0
    8.2646    2.8000    0.0000 C   0  0  0  0  0  0  0  0  0  0  0  0
    3.6373    4.2993    0.0000 C   0  0  0  0  0  0  0  0  0  0  0  0
    9.4770    2.1000    0.0000 C   0  0  0  0  0  0  0  0  0  0  0  0
   10.6894    2.8000    0.0000 C   0  0  0  0  0  0  0  0  0  0  0  0
   10.6894    4.2000    0.0000 C   0  0  0  0  0  0  0  0  0  0  0  0
    9.4770    4.9000    0.0000 C   0  0  0  0  0  0  0  0  0  0  0  0
    8.2646    4.2000    0.0000 C   0  0  0  0  0  0  0  0  0  0  0  0
    9.4770    0.7000    0.0000 C   0  0  0  0  0  0  0  0  0  0  0  0
    8.2646    0.0000    0.0000 C   0  0  0  0  0  0  0  0  0  0  0  0
   10.6894    0.0000    0.0000 C   0  0  0  0  0  0  0  0  0  0  0  0
  1  2  1  0  0  0  0
  2  3  1  0  0  0  0
  3  4  1  0  0  0  0
  3  5  2  0  0  0  0
  1  6  1  0  0  0  0
  6  7  2  0  0  0  0
  7  8  1  0  0  0  0
  8  9  2  0  0  0  0
  9 10  1  0  0  0  0
 10 11  2  0  0  0  0
 11  6  1  0  0  0  0
  4 12  1  0  0  0  0
  1 13  1  1  0  0  0
 12 14  2  0  0  0  0
 14 15  1  0  0  0  0
 15 16  2  0  0  0  0
 16 17  1  0  0  0  0
 17 18  2  0  0  0  0
 18 12  1  0  0  0  0
 14 19  1  0  0  0  0
 19 20  1  0  0  0  0
 19 21  1  0  0  0  0
M  END
> <Molecule Name>
712

> <CDD Number>
CDD-16016

> <Human_sEH_IC50_uM>
100.0

> <Mouse_sEH_IC50_uM>
100.0

$$$$

SketchEl molfile

 20 20  0  0  0  0  0  0  0  0999 V2000
    3.6373    2.8000    0.0000 C   0  0  0  0  0  0  0  0  0  0  0  0
    4.8497    2.1000    0.0000 N   0  0  0  0  0  0  0  0  0  0  0  0
    6.0622    2.8000    0.0000 C   0  0  0  0  0  0  0  0  0  0  0  0
    7.2746    2.1000    0.0000 N   0  0  0  0  0  0  0  0  0  0  0  0
    6.0622    4.2000    0.0000 O   0  0  0  0  0  0  0  0  0  0  0  0
    2.4249    2.1000    0.0000 C   0  0  0  0  0  0  0  0  0  0  0  0
    1.2124    2.8000    0.0000 C   0  0  0  0  0  0  0  0  0  0  0  0
    0.0000    2.1000    0.0000 C   0  0  0  0  0  0  0  0  0  0  0  0
    0.0000    0.7000    0.0000 C   0  0  0  0  0  0  0  0  0  0  0  0
    1.2124    0.0000    0.0000 C   0  0  0  0  0  0  0  0  0  0  0  0
    2.4249    0.7000    0.0000 C   0  0  0  0  0  0  0  0  0  0  0  0
    8.2646    2.7007    0.0000 C   0  0  0  0  0  0  0  0  0  0  0  0
    9.4770    2.0007    0.0000 C   0  0  0  0  0  0  0  0  0  0  0  0
   10.6894    2.7007    0.0000 C   0  0  0  0  0  0  0  0  0  0  0  0
   10.6894    4.1007    0.0000 C   0  0  0  0  0  0  0  0  0  0  0  0
    9.4770    4.8007    0.0000 C   0  0  0  0  0  0  0  0  0  0  0  0
    8.2646    4.1007    0.0000 C   0  0  0  0  0  0  0  0  0  0  0  0
   11.9019    4.8007    0.0000 C   0  0  0  0  0  0  0  0  0  0  0  0
    3.6373    4.2000    0.0000 C   0  0  0  0  0  0  0  0  0  0  0  0
    3.5336    2.0687    0.0000 S   0  0  0  0  0  0  0  0  0  0  0  0
  1  2  1  0  0  0  0
  2  3  1  0  0  0  0
  3  4  1  0  0  0  0
  3  5  2  0  0  0  0
  1  6  1  0  0  0  0
  6  7  2  0  0  0  0
  7  8  1  0  0  0  0
  8  9  2  0  0  0  0
  9 10  1  0  0  0  0
 10 11  2  0  0  0  0
 11  6  1  0  0  0  0
  4 12  1  0  0  0  0
 12 13  2  0  0  0  0
 13 14  1  0  0  0  0
 14 15  2  0  0  0  0
 15 16  1  0  0  0  0
 16 17  2  0  0  0  0
 17 12  1  0  0  0  0
 15 18  1  0  0  0  0
  1 19  1  6  0  0  0
M  END
> <Molecule Name>
711

> <CDD Number>
CDD-16021

> <Human_sEH_IC50_uM>
0.1

> <Mouse_sEH_IC50_uM>
0.12

$$$$

SketchEl molfile

 19 20  0  0  0  0  0  0  0  0999 V2000
    3.6373    2.8000    0.0000 C   0  0  0  0  0  0  0  0  0  0  0  0
    4.8497    2.1000    0.0000 N   0  0  0  0  0  0  0  0  0  0  0  0
    6.0622    2.8000    0.0000 C   0  0  0  0  0  0  0  0  0  0  0  0
    7.2746    2.1000    0.0000 N   0  0  0  0  0  0  0  0  0  0  0  0
    6.0622    4.2000    0.0000 O   0  0  0  0  0  0  0  0  0  0  0  0
    2.4249    2.1000    0.0000 C   0  0  0  0  0  0  0  0  0  0  0  0
    1.2124    2.8000    0.0000 C   0  0  0  0  0  0  0  0  0  0  0  0
    0.0000    2.1000    0.0000 C   0  0  0  0  0  0  0  0  0  0  0  0
    0.0000    0.7000    0.0000 C   0  0  0  0  0  0  0  0  0  0  0  0
    1.2124    0.0000    0.0000 C   0  0  0  0  0  0  0  0  0  0  0  0
    2.4249    0.7000    0.0000 C   0  0  0  0  0  0  0  0  0  0  0  0
    8.2646    2.7007    0.0000 C   0  0  0  0  0  0  0  0  0  0  0  0
    3.6373    4.2000    0.0000 C   0  0  0  0  0  0  0  0  0  0  0  0
    9.4770    2.0007    0.0000 C   0  0  0  0  0  0  0  0  0  0  0  0
   10.6894    2.7007    0.0000 C   0  0  0  0  0  0  0  0  0  0  0  0
   10.6894    4.1007    0.0000 C   0  0  0  0  0  0  0  0  0  0  0  0
    9.4770    4.8007    0.0000 C   0  0  0  0  0  0  0  0  0  0  0  0
    8.2646    4.1007    0.0000 C   0  0  0  0  0  0  0  0  0  0  0  0
   11.9019    4.8007    0.0000 C   0  0  0  0  0  0  0  0  0  0  0  0
  1  2  1  0  0  0  0
  2  3  1  0  0  0  0
  3  4  1  0  0  0  0
  3  5  2  0  0  0  0
  1  6  1  0  0  0  0
  6  7  2  0  0  0  0
  7  8  1  0  0  0  0
  8  9  2  0  0  0  0
  9 10  1  0  0  0  0
 10 11  2  0  0  0  0
 11  6  1  0  0  0  0
  4 12  1  0  0  0  0
  1 13  1  1  0  0  0
 12 14  2  0  0  0  0
 14 15  1  0  0  0  0
 15 16  2  0  0  0  0
 16 17  1  0  0  0  0
 17 18  2  0  0  0  0
 18 12  1  0  0  0  0
 16 19  1  0  0  0  0
M  END
> <Molecule Name>
710

> <CDD Number>
CDD-16015

> <Human_sEH_IC50_uM>
19.0

> <Mouse_sEH_IC50_uM>
0.52

$$$$

SketchEl molfile

 24 27  0  0  0  0  0  0  0  0999 V2000
    0.9900    5.4980    0.0000 C   0  0  0  0  0  0  0  0  0  0  0  0
    0.0000    4.5081    0.0000 C   0  0  0  0  0  0  0  0  0  0  0  0
    1.3998    4.5081    0.0000 C   0  0  0  0  0  0  0  0  0  0  0  0
    2.6161    3.8147    0.0000 C   0  0  0  0  0  0  0  0  0  0  0  0
    3.6062    4.8046    0.0000 C   0  0  0  0  0  0  0  0  0  0  0  0
    2.2063    4.8046    0.0000 C   0  0  0  0  0  0  0  0  0  0  0  0
    4.8186    4.1046    0.0000 N   0  0  0  0  0  0  0  0  0  0  0  0
    6.0311    4.8046    0.0000 C   0  0  0  0  0  0  0  0  0  0  0  0
    7.2435    4.1046    0.0000 O   0  0  0  0  0  0  0  0  0  0  0  0
    6.0311    6.2046    0.0000 O   0  0  0  0  0  0  0  0  0  0  0  0
    8.4559    4.8046    0.0000 C   0  0  0  0  0  0  0  0  0  0  0  0
    9.6684    4.1046    0.0000 C   0  0  0  0  0  0  0  0  0  0  0  0
    9.6684    2.7046    0.0000 C   0  0  0  0  0  0  0  0  0  0  0  0
   10.8808    4.8046    0.0000 C   0  0  0  0  0  0  0  0  0  0  0  0
   11.8708    3.8146    0.0000 C   0  0  0  0  0  0  0  0  0  0  0  0
   11.0207    2.3422    0.0000 C   0  0  0  0  0  0  0  0  0  0  0  0
   13.2230    4.1770    0.0000 C   0  0  0  0  0  0  0  0  0  0  0  0
   13.5854    5.5293    0.0000 C   0  0  0  0  0  0  0  0  0  0  0  0
   12.5954    6.5192    0.0000 C   0  0  0  0  0  0  0  0  0  0  0  0
   11.2432    6.1569    0.0000 C   0  0  0  0  0  0  0  0  0  0  0  0
    8.6784    1.7146    0.0000 C   0  0  0  0  0  0  0  0  0  0  0  0
    9.0408    0.3623    0.0000 C   0  0  0  0  0  0  0  0  0  0  0  0
   10.3931    0.0000    0.0000 C   0  0  0  0  0  0  0  0  0  0  0  0
   11.3830    0.9899    0.0000 C   0  0  0  0  0  0  0  0  0  0  0  0
  1  2  1  0  0  0  0
  2  3  1  0  0  0  0
  3  4  1  0  0  0  0
  4  5  1  0  0  0  0
  5  6  1  0  0  0  0
  6  1  1  0  0  0  0
  5  7  1  0  0  0  0
  7  8  1  0  0  0  0
  8  9  1  0  0  0  0
  8 10  2  0  0  0  0
  9 11  1  0  0  0  0
 11 12  1  0  0  0  0
 12 13  1  0  0  0  0
 12 14  1  0  0  0  0
 14 15  2  0  0  0  0
 13 16  1  0  0  0  0
 15 16  1  0  0  0  0
 15 17  1  0  0  0  0
 17 18  2  0  0  0  0
 18 19  1  0  0  0  0
 19 20  2  0  0  0  0
 20 14  1  0  0  0  0
 13 21  2  0  0  0  0
 21 22  1  0  0  0  0
 22 23  2  0  0  0  0
 23 24  1  0  0  0  0
 24 16  2  0  0  0  0
M  END
> <Molecule Name>
709

> <CDD Number>
CDD-16101

> <Human_sEH_IC50_uM>
80.0

> <Mouse_sEH_IC50_uM>
53.0

$$$$

SketchEl molfile

 22 23  0  0  0  0  0  0  0  0999 V2000
    1.2124    3.5704    0.0000 C   0  0  0  0  0  0  0  0  0  0  0  0
    0.0000    2.8704    0.0000 C   0  0  0  0  0  0  0  0  0  0  0  0
    1.3581    2.5305    0.0000 C   0  0  0  0  0  0  0  0  0  0  0  0
    2.3535    1.5459    0.0000 C   0  0  0  0  0  0  0  0  0  0  0  0
    3.5661    2.2458    0.0000 C   0  0  0  0  0  0  0  0  0  0  0  0
    2.2079    2.5859    0.0000 C   0  0  0  0  0  0  0  0  0  0  0  0
    4.7785    1.5458    0.0000 N   0  0  0  0  0  0  0  0  0  0  0  0
    5.7684    2.1465    0.0000 C   0  0  0  0  0  0  0  0  0  0  0  0
    6.9809    1.4465    0.0000 N   0  0  0  0  0  0  0  0  0  0  0  0
    5.7684    3.5465    0.0000 O   0  0  0  0  0  0  0  0  0  0  0  0
    7.9708    2.0472    0.0000 C   0  0  0  0  0  0  0  0  0  0  0  0
    9.1982    1.3738    0.0000 C   0  0  0  0  0  0  0  0  0  0  0  0
   10.3951    2.1000    0.0000 N   0  0  0  0  0  0  0  0  0  0  0  0
   11.6076    1.4000    0.0000 C   0  0  0  0  0  0  0  0  0  0  0  0
   12.8200    2.1000    0.0000 N   0  0  0  0  0  0  0  0  0  0  0  0
   11.6076    0.0000    0.0000 O   0  0  0  0  0  0  0  0  0  0  0  0
   13.8099    1.4993    0.0000 C   0  0  0  0  0  0  0  0  0  0  0  0
   14.7999    0.5094    0.0000 C   0  0  0  0  0  0  0  0  0  0  0  0
   16.0162    1.2026    0.0000 C   0  0  0  0  0  0  0  0  0  0  0  0
   17.4161    1.2026    0.0000 C   0  0  0  0  0  0  0  0  0  0  0  0
   16.4262    2.1927    0.0000 C   0  0  0  0  0  0  0  0  0  0  0  0
   15.2097    1.4993    0.0000 C   0  0  0  0  0  0  0  0  0  0  0  0
  1  2  1  0  0  0  0
  2  3  1  0  0  0  0
  3  4  1  0  0  0  0
  4  5  1  0  0  0  0
  5  6  1  0  0  0  0
  6  1  1  0  0  0  0
  5  7  1  0  0  0  0
  7  8  1  0  0  0  0
  8  9  1  0  0  0  0
  8 10  2  0  0  0  0
  9 11  1  0  0  0  0
 11 12  1  0  0  0  0
 12 13  1  0  0  0  0
 13 14  1  0  0  0  0
 14 15  1  0  0  0  0
 14 16  2  0  0  0  0
 15 17  1  0  0  0  0
 17 18  1  0  0  0  0
 18 19  1  0  0  0  0
 19 20  1  0  0  0  0
 20 21  1  0  0  0  0
 21 22  1  0  0  0  0
 22 17  1  0  0  0  0
M  END
> <Molecule Name>
708

> <CDD Number>
CDD-15909

> <Human_sEH_IC50_uM>
100.0

> <Mouse_sEH_IC50_uM>
100.0

$$$$

SketchEl molfile

 22 23  0  0  0  0  0  0  0  0999 V2000
    1.2124    3.5704    0.0000 C   0  0  0  0  0  0  0  0  0  0  0  0
    0.0000    2.8704    0.0000 C   0  0  0  0  0  0  0  0  0  0  0  0
    1.3581    2.5305    0.0000 C   0  0  0  0  0  0  0  0  0  0  0  0
    2.3535    1.5459    0.0000 C   0  0  0  0  0  0  0  0  0  0  0  0
    3.5661    2.2458    0.0000 C   0  0  0  0  0  0  0  0  0  0  0  0
    2.2079    2.5859    0.0000 C   0  0  0  0  0  0  0  0  0  0  0  0
    4.7785    1.5458    0.0000 N   0  0  0  0  0  0  0  0  0  0  0  0
    5.7684    2.1465    0.0000 C   0  0  0  0  0  0  0  0  0  0  0  0
    6.9809    1.4465    0.0000 N   0  0  0  0  0  0  0  0  0  0  0  0
    5.7684    3.5465    0.0000 O   0  0  0  0  0  0  0  0  0  0  0  0
    7.9708    2.0472    0.0000 C   0  0  0  0  0  0  0  0  0  0  0  0
    9.1982    1.3738    0.0000 C   0  0  0  0  0  0  0  0  0  0  0  0
   10.3951    2.1000    0.0000 O   0  0  0  0  0  0  0  0  0  0  0  0
   11.6076    1.4000    0.0000 C   0  0  0  0  0  0  0  0  0  0  0  0
   12.8200    2.1000    0.0000 N   0  0  0  0  0  0  0  0  0  0  0  0
   11.6076    0.0000    0.0000 O   0  0  0  0  0  0  0  0  0  0  0  0
   13.8099    1.4993    0.0000 C   0  0  0  0  0  0  0  0  0  0  0  0
   14.7999    0.5094    0.0000 C   0  0  0  0  0  0  0  0  0  0  0  0
   16.0162    1.2026    0.0000 C   0  0  0  0  0  0  0  0  0  0  0  0
   17.4161    1.2026    0.0000 C   0  0  0  0  0  0  0  0  0  0  0  0
   16.4262    2.1927    0.0000 C   0  0  0  0  0  0  0  0  0  0  0  0
   15.2097    1.4993    0.0000 C   0  0  0  0  0  0  0  0  0  0  0  0
  1  2  1  0  0  0  0
  2  3  1  0  0  0  0
  3  4  1  0  0  0  0
  4  5  1  0  0  0  0
  5  6  1  0  0  0  0
  6  1  1  0  0  0  0
  5  7  1  0  0  0  0
  7  8  1  0  0  0  0
  8  9  1  0  0  0  0
  8 10  2  0  0  0  0
  9 11  1  0  0  0  0
 11 12  1  0  0  0  0
 12 13  1  0  0  0  0
 13 14  1  0  0  0  0
 14 15  1  0  0  0  0
 14 16  2  0  0  0  0
 15 17  1  0  0  0  0
 17 18  1  0  0  0  0
 18 19  1  0  0  0  0
 19 20  1  0  0  0  0
 20 21  1  0  0  0  0
 21 22  1  0  0  0  0
 22 17  1  0  0  0  0
M  END
> <Molecule Name>
707

> <CDD Number>
CDD-15908

> <Human_sEH_IC50_uM>
0.1

> <Mouse_sEH_IC50_uM>
0.05

$$$$

SketchEl molfile

 19 20  0  0  0  0  0  0  0  0999 V2000
    1.2124    3.5239    0.0000 C   0  0  0  0  0  0  0  0  0  0  0  0
    0.0000    2.8239    0.0000 C   0  0  0  0  0  0  0  0  0  0  0  0
    1.3581    2.4840    0.0000 C   0  0  0  0  0  0  0  0  0  0  0  0
    2.3535    1.4994    0.0000 C   0  0  0  0  0  0  0  0  0  0  0  0
    3.5661    2.1993    0.0000 C   0  0  0  0  0  0  0  0  0  0  0  0
    2.2079    2.5394    0.0000 C   0  0  0  0  0  0  0  0  0  0  0  0
    4.7785    1.4993    0.0000 N   0  0  0  0  0  0  0  0  0  0  0  0
    5.9909    2.1993    0.0000 C   0  0  0  0  0  0  0  0  0  0  0  0
    7.2034    1.4993    0.0000 N   0  0  0  0  0  0  0  0  0  0  0  0
    5.9909    3.5993    0.0000 O   0  0  0  0  0  0  0  0  0  0  0  0
    8.1933    2.1000    0.0000 C   0  0  0  0  0  0  0  0  0  0  0  0
    9.4058    1.4000    0.0000 C   0  0  0  0  0  0  0  0  0  0  0  0
   10.6182    2.1000    0.0000 C   0  0  0  0  0  0  0  0  0  0  0  0
   10.6182    3.5000    0.0000 C   0  0  0  0  0  0  0  0  0  0  0  0
    9.4058    4.2000    0.0000 C   0  0  0  0  0  0  0  0  0  0  0  0
    8.1933    3.5000    0.0000 C   0  0  0  0  0  0  0  0  0  0  0  0
   11.8306    1.4000    0.0000 C   0  0  0  0  0  0  0  0  0  0  0  0
   11.8306    0.0000    0.0000 C   0  0  0  0  0  0  0  0  0  0  0  0
   13.0431    2.1000    0.0000 O   0  0  0  0  0  0  0  0  0  0  0  0
  1  2  1  0  0  0  0
  2  3  1  0  0  0  0
  3  4  1  0  0  0  0
  4  5  1  0  0  0  0
  5  6  1  0  0  0  0
  6  1  1  0  0  0  0
  5  7  1  0  0  0  0
  7  8  1  0  0  0  0
  8  9  1  0  0  0  0
  8 10  2  0  0  0  0
  9 11  1  0  0  0  0
 11 12  2  0  0  0  0
 12 13  1  0  0  0  0
 13 14  2  0  0  0  0
 14 15  1  0  0  0  0
 15 16  2  0  0  0  0
 16 11  1  0  0  0  0
 13 17  1  0  0  0  0
 17 18  1  0  0  0  0
 17 19  2  0  0  0  0
M  END
> <Molecule Name>
706

> <CDD Number>
CDD-15873

> <Human_sEH_IC50_uM>
0.69

> <Mouse_sEH_IC50_uM>
0.32

$$$$

SketchEl molfile

 20 22  0  0  0  0  0  0  0  0999 V2000
    1.2124    4.1973    0.0000 C   0  0  0  0  0  0  0  0  0  0  0  0
    0.0000    3.4973    0.0000 C   0  0  0  0  0  0  0  0  0  0  0  0
    1.3581    3.1574    0.0000 C   0  0  0  0  0  0  0  0  0  0  0  0
    2.3535    2.1729    0.0000 C   0  0  0  0  0  0  0  0  0  0  0  0
    3.5661    2.8728    0.0000 C   0  0  0  0  0  0  0  0  0  0  0  0
    2.2079    3.2128    0.0000 C   0  0  0  0  0  0  0  0  0  0  0  0
    4.7785    2.1728    0.0000 N   0  0  0  0  0  0  0  0  0  0  0  0
    5.9909    2.8728    0.0000 C   0  0  0  0  0  0  0  0  0  0  0  0
    7.2034    2.1728    0.0000 N   0  0  0  0  0  0  0  0  0  0  0  0
    5.9909    4.2728    0.0000 O   0  0  0  0  0  0  0  0  0  0  0  0
    8.1933    2.7734    0.0000 C   0  0  0  0  0  0  0  0  0  0  0  0
    9.4207    2.1000    0.0000 C   0  0  0  0  0  0  0  0  0  0  0  0
    9.4207    0.7000    0.0000 C   0  0  0  0  0  0  0  0  0  0  0  0
   10.8207    0.7000    0.0000 C   0  0  0  0  0  0  0  0  0  0  0  0
   10.8207    2.1000    0.0000 C   0  0  0  0  0  0  0  0  0  0  0  0
   10.1207    3.3124    0.0000 N   0  0  0  0  0  0  0  0  0  0  0  0
   12.0331    0.0000    0.0000 C   0  0  0  0  0  0  0  0  0  0  0  0
   13.2456    0.7000    0.0000 C   0  0  0  0  0  0  0  0  0  0  0  0
   13.2456    2.1000    0.0000 C   0  0  0  0  0  0  0  0  0  0  0  0
   12.0331    2.8000    0.0000 C   0  0  0  0  0  0  0  0  0  0  0  0
  1  2  1  0  0  0  0
  2  3  1  0  0  0  0
  3  4  1  0  0  0  0
  4  5  1  0  0  0  0
  5  6  1  0  0  0  0
  6  1  1  0  0  0  0
  5  7  1  0  0  0  0
  7  8  1  0  0  0  0
  8  9  1  0  0  0  0
  8 10  2  0  0  0  0
  9 11  1  0  0  0  0
 11 12  1  0  0  0  0
 12 13  1  0  0  0  0
 13 14  1  0  0  0  0
 14 15  2  0  0  0  0
 12 16  1  0  0  0  0
 15 16  1  0  0  0  0
 14 17  1  0  0  0  0
 17 18  2  0  0  0  0
 18 19  1  0  0  0  0
 19 20  2  0  0  0  0
 20 15  1  0  0  0  0
M  END
> <Molecule Name>
705

> <CDD Number>
CDD-15962

> <Human_sEH_IC50_uM>
0.48

> <Mouse_sEH_IC50_uM>
0.05

$$$$

SketchEl molfile

 18 20  0  0  0  0  0  0  0  0999 V2000
    1.2124    2.0245    0.0000 C   0  0  0  0  0  0  0  0  0  0  0  0
    0.0000    1.3245    0.0000 C   0  0  0  0  0  0  0  0  0  0  0  0
    1.3581    0.9847    0.0000 C   0  0  0  0  0  0  0  0  0  0  0  0
    2.3535    0.0001    0.0000 C   0  0  0  0  0  0  0  0  0  0  0  0
    3.5661    0.7000    0.0000 C   0  0  0  0  0  0  0  0  0  0  0  0
    2.2079    1.0400    0.0000 C   0  0  0  0  0  0  0  0  0  0  0  0
    4.7785    0.0000    0.0000 N   0  0  0  0  0  0  0  0  0  0  0  0
    5.9909    0.7000    0.0000 C   0  0  0  0  0  0  0  0  0  0  0  0
    7.2034    0.0000    0.0000 O   0  0  0  0  0  0  0  0  0  0  0  0
    8.4158    0.7000    0.0000 C   0  0  0  0  0  0  0  0  0  0  0  0
    8.4158    2.1000    0.0000 C   0  0  0  0  0  0  0  0  0  0  0  0
    7.2034    2.8000    0.0000 C   0  0  0  0  0  0  0  0  0  0  0  0
    5.9909    2.1000    0.0000 N   0  0  0  0  0  0  0  0  0  0  0  0
    9.6282    2.8000    0.0000 C   0  0  0  0  0  0  0  0  0  0  0  0
    9.6282    4.2000    0.0000 C   0  0  0  0  0  0  0  0  0  0  0  0
    8.4158    4.9000    0.0000 C   0  0  0  0  0  0  0  0  0  0  0  0
    7.2034    4.2000    0.0000 C   0  0  0  0  0  0  0  0  0  0  0  0
    9.6282    0.0000    0.0000 O   0  0  0  0  0  0  0  0  0  0  0  0
  1  2  1  0  0  0  0
  2  3  1  0  0  0  0
  3  4  1  0  0  0  0
  4  5  1  0  0  0  0
  5  6  1  0  0  0  0
  6  1  1  0  0  0  0
  5  7  1  0  0  0  0
  7  8  1  0  0  0  0
  8  9  1  0  0  0  0
  9 10  1  0  0  0  0
 10 11  1  0  0  0  0
 11 12  2  0  0  0  0
 12 13  1  0  0  0  0
 13  8  2  0  0  0  0
 11 14  1  0  0  0  0
 14 15  2  0  0  0  0
 15 16  1  0  0  0  0
 16 17  2  0  0  0  0
 17 12  1  0  0  0  0
 10 18  2  0  0  0  0
M  END
> <Molecule Name>
704

> <Human_sEH_IC50_uM>
100.0

> <Mouse_sEH_IC50_uM>
100.0

$$$$

SketchEl molfile

 17 18  0  0  0  0  0  0  0  0999 V2000
    1.2124    3.4245    0.0000 C   0  0  0  0  0  0  0  0  0  0  0  0
    0.0000    2.7245    0.0000 C   0  0  0  0  0  0  0  0  0  0  0  0
    1.3581    2.3847    0.0000 C   0  0  0  0  0  0  0  0  0  0  0  0
    2.3535    1.4001    0.0000 C   0  0  0  0  0  0  0  0  0  0  0  0
    3.5661    2.1000    0.0000 C   0  0  0  0  0  0  0  0  0  0  0  0
    2.2079    2.4400    0.0000 C   0  0  0  0  0  0  0  0  0  0  0  0
    4.7785    1.4000    0.0000 N   0  0  0  0  0  0  0  0  0  0  0  0
    5.9909    2.1000    0.0000 C   0  0  0  0  0  0  0  0  0  0  0  0
    7.2034    1.4000    0.0000 C   0  0  0  0  0  0  0  0  0  0  0  0
    5.9909    3.5000    0.0000 O   0  0  0  0  0  0  0  0  0  0  0  0
    8.4158    2.1000    0.0000 C   0  0  0  0  0  0  0  0  0  0  0  0
    9.6282    1.4000    0.0000 C   0  0  0  0  0  0  0  0  0  0  0  0
   10.8407    2.1000    0.0000 C   0  0  0  0  0  0  0  0  0  0  0  0
   10.8407    3.5000    0.0000 C   0  0  0  0  0  0  0  0  0  0  0  0
    9.6282    4.2000    0.0000 C   0  0  0  0  0  0  0  0  0  0  0  0
    8.4158    3.5000    0.0000 C   0  0  0  0  0  0  0  0  0  0  0  0
    9.6282    0.0000    0.0000 O   0  0  0  0  0  0  0  0  0  0  0  0
  1  2  1  0  0  0  0
  2  3  1  0  0  0  0
  3  4  1  0  0  0  0
  4  5  1  0  0  0  0
  5  6  1  0  0  0  0
  6  1  1  0  0  0  0
  5  7  1  0  0  0  0
  7  8  1  0  0  0  0
  8  9  1  0  0  0  0
  8 10  2  0  0  0  0
  9 11  1  0  0  0  0
 11 12  2  0  0  0  0
 12 13  1  0  0  0  0
 13 14  2  0  0  0  0
 14 15  1  0  0  0  0
 15 16  2  0  0  0  0
 16 11  1  0  0  0  0
 12 17  1  0  0  0  0
M  END
> <Molecule Name>
703

> <CDD Number>
CDD-16158

> <Human_sEH_IC50_uM>
100.0

> <Mouse_sEH_IC50_uM>
100.0

$$$$

SketchEl molfile

 18 19  0  0  0  0  0  0  0  0999 V2000
    1.2124    4.1245    0.0000 C   0  0  0  0  0  0  0  0  0  0  0  0
    0.0000    3.4245    0.0000 C   0  0  0  0  0  0  0  0  0  0  0  0
    1.3581    3.0847    0.0000 C   0  0  0  0  0  0  0  0  0  0  0  0
    2.3535    2.1001    0.0000 C   0  0  0  0  0  0  0  0  0  0  0  0
    3.5661    2.8000    0.0000 C   0  0  0  0  0  0  0  0  0  0  0  0
    2.2079    3.1400    0.0000 C   0  0  0  0  0  0  0  0  0  0  0  0
    4.7785    2.1000    0.0000 N   0  0  0  0  0  0  0  0  0  0  0  0
    5.9909    2.8000    0.0000 C   0  0  0  0  0  0  0  0  0  0  0  0
    7.2034    2.1000    0.0000 C   0  0  0  0  0  0  0  0  0  0  0  0
    5.9909    4.2000    0.0000 O   0  0  0  0  0  0  0  0  0  0  0  0
    8.4158    2.8000    0.0000 C   0  0  0  0  0  0  0  0  0  0  0  0
    9.6282    2.1000    0.0000 C   0  0  0  0  0  0  0  0  0  0  0  0
   10.8407    2.8000    0.0000 C   0  0  0  0  0  0  0  0  0  0  0  0
   10.8407    4.2000    0.0000 C   0  0  0  0  0  0  0  0  0  0  0  0
    9.6282    4.9000    0.0000 C   0  0  0  0  0  0  0  0  0  0  0  0
    8.4158    4.2000    0.0000 C   0  0  0  0  0  0  0  0  0  0  0  0
    9.6282    0.7000    0.0000 C   0  0  0  0  0  0  0  0  0  0  0  0
   10.8407    0.0000    0.0000 O   0  0  0  0  0  0  0  0  0  0  0  0
  1  2  1  0  0  0  0
  2  3  1  0  0  0  0
  3  4  1  0  0  0  0
  4  5  1  0  0  0  0
  5  6  1  0  0  0  0
  6  1  1  0  0  0  0
  5  7  1  0  0  0  0
  7  8  1  0  0  0  0
  8  9  1  0  0  0  0
  8 10  2  0  0  0  0
  9 11  1  0  0  0  0
 11 12  2  0  0  0  0
 12 13  1  0  0  0  0
 13 14  2  0  0  0  0
 14 15  1  0  0  0  0
 15 16  2  0  0  0  0
 16 11  1  0  0  0  0
 12 17  1  0  0  0  0
 17 18  1  0  0  0  0
M  END
> <Molecule Name>
702

> <CDD Number>
CDD-16157

> <Human_sEH_IC50_uM>
100.0

> <Mouse_sEH_IC50_uM>
100.0

$$$$

SketchEl molfile

 18 19  0  0  0  0  0  0  0  0999 V2000
    2.3536    2.1000    0.0000 C   0  0  0  0  0  0  0  0  0  0  0  0
    3.5661    2.8000    0.0000 C   0  0  0  0  0  0  0  0  0  0  0  0
    2.2079    3.1399    0.0000 C   0  0  0  0  0  0  0  0  0  0  0  0
    1.2126    4.1244    0.0000 C   0  0  0  0  0  0  0  0  0  0  0  0
    0.0000    3.4245    0.0000 C   0  0  0  0  0  0  0  0  0  0  0  0
    1.3582    3.0845    0.0000 C   0  0  0  0  0  0  0  0  0  0  0  0
    4.7785    2.1000    0.0000 N   0  0  0  0  0  0  0  0  0  0  0  0
    5.9909    2.8000    0.0000 C   0  0  0  0  0  0  0  0  0  0  0  0
    7.2034    2.1000    0.0000 N   0  0  0  0  0  0  0  0  0  0  0  0
    5.9909    4.2000    0.0000 O   0  0  0  0  0  0  0  0  0  0  0  0
    8.4158    2.8000    0.0000 C   0  0  0  0  0  0  0  0  0  0  0  0
    9.6282    2.1000    0.0000 C   0  0  0  0  0  0  0  0  0  0  0  0
   10.8407    2.8000    0.0000 C   0  0  0  0  0  0  0  0  0  0  0  0
   10.8407    4.2000    0.0000 C   0  0  0  0  0  0  0  0  0  0  0  0
    9.6282    4.9000    0.0000 C   0  0  0  0  0  0  0  0  0  0  0  0
    8.4158    4.2000    0.0000 C   0  0  0  0  0  0  0  0  0  0  0  0
    9.6282    0.7000    0.0000 C   0  0  0  0  0  0  0  0  0  0  0  0
   10.8407    0.0000    0.0000 O   0  0  0  0  0  0  0  0  0  0  0  0
  1  2  1  0  0  0  0
  2  3  1  0  0  0  0
  3  4  1  0  0  0  0
  4  5  1  0  0  0  0
  5  6  1  0  0  0  0
  6  1  1  0  0  0  0
  2  7  1  0  0  0  0
  7  8  1  0  0  0  0
  8  9  1  0  0  0  0
  8 10  2  0  0  0  0
  9 11  1  0  0  0  0
 11 12  2  0  0  0  0
 12 13  1  0  0  0  0
 13 14  2  0  0  0  0
 14 15  1  0  0  0  0
 15 16  2  0  0  0  0
 16 11  1  0  0  0  0
 12 17  1  0  0  0  0
 17 18  1  0  0  0  0
M  END
> <Molecule Name>
701

> <CDD Number>
CDD-15989

> <Human_sEH_IC50_uM>
100.0

> <Mouse_sEH_IC50_uM>
100.0

$$$$

SketchEl molfile

 28 30  0  0  0  0  0  0  0  0999 V2000
    2.7836    4.1604    0.0000 C   0  0  0  0  0  0  0  0  0  0  0  0
    1.3836    4.1604    0.0000 C   0  0  0  0  0  0  0  0  0  0  0  0
    1.0130    2.8099    0.0000 C   0  0  0  0  0  0  0  0  0  0  0  0
    0.0000    1.8339    0.0000 C   0  0  0  0  0  0  0  0  0  0  0  0
    1.3836    1.8339    0.0000 C   0  0  0  0  0  0  0  0  0  0  0  0
    1.7500    3.1805    0.0000 C   0  0  0  0  0  0  0  0  0  0  0  0
    3.9941    3.4604    0.0000 C   0  0  0  0  0  0  0  0  0  0  0  0
    3.6319    2.1099    0.0000 C   0  0  0  0  0  0  0  0  0  0  0  0
    2.5941    1.1339    0.0000 C   0  0  0  0  0  0  0  0  0  0  0  0
    2.2235    2.1099    0.0000 C   0  0  0  0  0  0  0  0  0  0  0  0
    4.8424    1.4099    0.0000 N   0  0  0  0  0  0  0  0  0  0  0  0
    6.0529    2.1099    0.0000 C   0  0  0  0  0  0  0  0  0  0  0  0
    6.0529    3.5099    0.0000 O   0  0  0  0  0  0  0  0  0  0  0  0
    7.2635    1.4099    0.0000 N   0  0  0  0  0  0  0  0  0  0  0  0
    8.4764    2.1091    0.0000 C   0  0  0  0  0  0  0  0  0  0  0  0
    9.6883    1.4083    0.0000 C   0  0  0  0  0  0  0  0  0  0  0  0
   10.9012    2.1075    0.0000 C   0  0  0  0  0  0  0  0  0  0  0  0
   12.1132    1.4066    0.0000 C   0  0  0  0  0  0  0  0  0  0  0  0
   13.3261    2.1058    0.0000 C   0  0  0  0  0  0  0  0  0  0  0  0
   14.5381    1.4050    0.0000 C   0  0  0  0  0  0  0  0  0  0  0  0
   15.7510    2.1041    0.0000 C   0  0  0  0  0  0  0  0  0  0  0  0
   16.9629    1.4033    0.0000 C   0  0  0  0  0  0  0  0  0  0  0  0
   18.1759    2.1025    0.0000 C   0  0  0  0  0  0  0  0  0  0  0  0
   19.3878    1.4017    0.0000 C   0  0  0  0  0  0  0  0  0  0  0  0
   20.6007    2.1008    0.0000 C   0  0  0  0  0  0  0  0  0  0  0  0
   21.8127    1.4000    0.0000 C   0  0  0  0  0  0  0  0  0  0  0  0
   21.8127    0.0000    0.0000 O   0  0  0  0  0  0  0  0  0  0  0  0
   23.0251    2.1000    0.0000 O   0  0  0  0  0  0  0  0  0  0  0  0
  1  2  1  0  0  0  0
  2  3  1  0  0  0  0
  3  4  1  0  0  0  0
  4  5  1  0  0  0  0
  5  6  1  0  0  0  0
  1  6  1  0  0  0  0
  1  7  1  0  0  0  0
  7  8  1  0  0  0  0
  5  9  1  0  0  0  0
  8  9  1  0  0  0  0
  3 10  1  0  0  0  0
  8 10  1  0  0  0  0
  8 11  1  0  0  0  0
 11 12  1  0  0  0  0
 12 13  2  0  0  0  0
 12 14  1  0  0  0  0
 14 15  1  0  0  0  0
 15 16  1  0  0  0  0
 16 17  1  0  0  0  0
 17 18  1  0  0  0  0
 18 19  1  0  0  0  0
 19 20  1  0  0  0  0
 20 21  1  0  0  0  0
 21 22  1  0  0  0  0
 22 23  1  0  0  0  0
 23 24  1  0  0  0  0
 24 25  1  0  0  0  0
 25 26  1  0  0  0  0
 26 27  2  0  0  0  0
 26 28  1  0  0  0  0
M  END
> <Molecule Name>
700

> <CDD Number>
CDD-16260

> <Human_sEH_IC50_uM>
0.1

> <Mouse_sEH_IC50_uM>
0.05

$$$$

SketchEl molfile

 26 28  0  0  0  0  0  0  0  0999 V2000
    0.9900    1.6833    0.0000 C   0  0  0  0  0  0  0  0  0  0  0  0
    0.0000    0.6934    0.0000 C   0  0  0  0  0  0  0  0  0  0  0  0
    1.3998    0.6934    0.0000 C   0  0  0  0  0  0  0  0  0  0  0  0
    2.6161    0.0000    0.0000 C   0  0  0  0  0  0  0  0  0  0  0  0
    3.6062    0.9899    0.0000 C   0  0  0  0  0  0  0  0  0  0  0  0
    2.2063    0.9899    0.0000 C   0  0  0  0  0  0  0  0  0  0  0  0
    3.6062    2.3899    0.0000 C   0  0  0  0  0  0  0  0  0  0  0  0
    1.3998    2.0934    0.0000 C   0  0  0  0  0  0  0  0  0  0  0  0
    0.9900    3.0833    0.0000 C   0  0  0  0  0  0  0  0  0  0  0  0
    2.3898    3.0833    0.0000 C   0  0  0  0  0  0  0  0  0  0  0  0
    4.8186    0.2899    0.0000 N   0  0  0  0  0  0  0  0  0  0  0  0
    6.0311    0.9899    0.0000 C   0  0  0  0  0  0  0  0  0  0  0  0
    7.2435    0.2899    0.0000 N   0  0  0  0  0  0  0  0  0  0  0  0
    6.0311    2.3899    0.0000 O   0  0  0  0  0  0  0  0  0  0  0  0
    8.2334    0.8906    0.0000 C   0  0  0  0  0  0  0  0  0  0  0  0
    9.4608    0.2171    0.0000 C   0  0  0  0  0  0  0  0  0  0  0  0
   10.6577    0.9434    0.0000 C   0  0  0  0  0  0  0  0  0  0  0  0
   11.8851    0.2699    0.0000 C   0  0  0  0  0  0  0  0  0  0  0  0
   13.0976    0.9699    0.0000 C   0  0  0  0  0  0  0  0  0  0  0  0
   14.3100    0.2699    0.0000 C   0  0  0  0  0  0  0  0  0  0  0  0
   15.5224    0.9699    0.0000 C   0  0  0  0  0  0  0  0  0  0  0  0
   16.7349    0.2699    0.0000 C   0  0  0  0  0  0  0  0  0  0  0  0
   17.9473    0.9699    0.0000 C   0  0  0  0  0  0  0  0  0  0  0  0
   19.1598    0.2699    0.0000 C   0  0  0  0  0  0  0  0  0  0  0  0
   20.3722    0.9699    0.0000 C   0  0  0  0  0  0  0  0  0  0  0  0
   21.5846    0.2699    0.0000 C   0  0  0  0  0  0  0  0  0  0  0  0
  1  2  1  0  0  0  0
  2  3  1  0  0  0  0
  3  4  1  0  0  0  0
  4  5  1  0  0  0  0
  5  6  1  0  0  0  0
  6  1  1  0  0  0  0
  5  7  1  0  0  0  0
  3  8  1  0  0  0  0
  1  9  1  0  0  0  0
  8 10  1  0  0  0  0
  7 10  1  0  0  0  0
  9 10  1  0  0  0  0
  5 11  1  0  0  0  0
 11 12  1  0  0  0  0
 12 13  1  0  0  0  0
 12 14  2  0  0  0  0
 13 15  1  0  0  0  0
 15 16  1  0  0  0  0
 16 17  1  0  0  0  0
 17 18  1  0  0  0  0
 18 19  1  0  0  0  0
 19 20  1  0  0  0  0
 20 21  1  0  0  0  0
 21 22  1  0  0  0  0
 22 23  1  0  0  0  0
 23 24  1  0  0  0  0
 24 25  1  0  0  0  0
 25 26  1  0  0  0  0
M  END
> <Molecule Name>
687

> <CDD Number>
CDD-15932

> <Human_sEH_IC50_uM>
0.1

> <Mouse_sEH_IC50_uM>
0.05

$$$$

SketchEl molfile

 22 22  0  0  0  0  0  0  0  0999 V2000
    2.5647    2.1993    0.0000 C   0  0  0  0  0  0  0  0  0  0  0  0
    3.7772    1.4993    0.0000 C   0  0  0  0  0  0  0  0  0  0  0  0
    4.9896    2.1993    0.0000 C   0  0  0  0  0  0  0  0  0  0  0  0
    4.9896    3.5993    0.0000 C   0  0  0  0  0  0  0  0  0  0  0  0
    3.7772    4.2993    0.0000 C   0  0  0  0  0  0  0  0  0  0  0  0
    2.5647    3.5993    0.0000 C   0  0  0  0  0  0  0  0  0  0  0  0
    1.3523    4.2993    0.0000 C   0  0  0  0  0  0  0  0  0  0  0  0
    0.9899    5.6516    0.0000 C   0  0  0  0  0  0  0  0  0  0  0  0
    0.0000    3.9370    0.0000 C   0  0  0  0  0  0  0  0  0  0  0  0
    6.2020    1.4993    0.0000 N   0  0  0  0  0  0  0  0  0  0  0  0
    7.1920    2.1000    0.0000 C   0  0  0  0  0  0  0  0  0  0  0  0
    8.4044    1.4000    0.0000 N   0  0  0  0  0  0  0  0  0  0  0  0
    7.1920    3.5000    0.0000 O   0  0  0  0  0  0  0  0  0  0  0  0
    9.3944    2.0007    0.0000 C   0  0  0  0  0  0  0  0  0  0  0  0
    8.4044    0.0000    0.0000 C   0  0  0  0  0  0  0  0  0  0  0  0
   10.6068    1.3007    0.0000 C   0  0  0  0  0  0  0  0  0  0  0  0
   11.8192    2.0007    0.0000 C   0  0  0  0  0  0  0  0  0  0  0  0
   13.0317    1.3007    0.0000 C   0  0  0  0  0  0  0  0  0  0  0  0
   14.2441    2.0007    0.0000 C   0  0  0  0  0  0  0  0  0  0  0  0
   15.4566    1.3007    0.0000 C   0  0  0  0  0  0  0  0  0  0  0  0
   16.6690    0.6007    0.0000 O   0  0  0  0  0  0  0  0  0  0  0  0
   16.4465    2.2906    0.0000 O   0  0  0  0  0  0  0  0  0  0  0  0
  1  2  2  0  0  0  0
  2  3  1  0  0  0  0
  3  4  2  0  0  0  0
  4  5  1  0  0  0  0
  5  6  2  0  0  0  0
  6  1  1  0  0  0  0
  6  7  1  0  0  0  0
  7  8  1  0  0  0  0
  7  9  1  0  0  0  0
  3 10  1  0  0  0  0
 10 11  1  0  0  0  0
 11 12  1  0  0  0  0
 11 13  2  0  0  0  0
 12 14  1  0  0  0  0
 12 15  1  0  0  0  0
 14 16  1  0  0  0  0
 16 17  1  0  0  0  0
 17 18  1  0  0  0  0
 18 19  1  0  0  0  0
 19 20  1  0  0  0  0
 20 21  1  0  0  0  0
 20 22  2  0  0  0  0
M  END
> <Molecule Name>
686

> <CDD Number>
CDD-16032

> <Human_sEH_IC50_uM>
29.0

> <Mouse_sEH_IC50_uM>
36.0

$$$$

SketchEl molfile

 20 19  0  0  0  0  0  0  0  0999 V2000
    6.0622    2.1993    0.0000 C   0  0  0  0  0  0  0  0  0  0  0  0
    7.2746    1.4993    0.0000 C   0  0  0  0  0  0  0  0  0  0  0  0
    8.4870    2.1993    0.0000 C   0  0  0  0  0  0  0  0  0  0  0  0
    9.6995    1.4993    0.0000 N   0  0  0  0  0  0  0  0  0  0  0  0
   10.9119    2.1993    0.0000 C   0  0  0  0  0  0  0  0  0  0  0  0
   12.1244    1.4993    0.0000 N   0  0  0  0  0  0  0  0  0  0  0  0
   10.9119    3.5993    0.0000 O   0  0  0  0  0  0  0  0  0  0  0  0
    4.8497    1.4993    0.0000 C   0  0  0  0  0  0  0  0  0  0  0  0
    3.6373    2.1993    0.0000 C   0  0  0  0  0  0  0  0  0  0  0  0
    2.4249    1.4993    0.0000 C   0  0  0  0  0  0  0  0  0  0  0  0
    1.2124    2.1993    0.0000 C   0  0  0  0  0  0  0  0  0  0  0  0
    0.0000    1.4993    0.0000 C   0  0  0  0  0  0  0  0  0  0  0  0
   13.1143    2.1000    0.0000 C   0  0  0  0  0  0  0  0  0  0  0  0
   14.3267    1.4000    0.0000 C   0  0  0  0  0  0  0  0  0  0  0  0
   15.5392    2.1000    0.0000 C   0  0  0  0  0  0  0  0  0  0  0  0
   16.7516    1.4000    0.0000 C   0  0  0  0  0  0  0  0  0  0  0  0
   17.9640    2.1000    0.0000 C   0  0  0  0  0  0  0  0  0  0  0  0
   19.1765    1.4000    0.0000 C   0  0  0  0  0  0  0  0  0  0  0  0
   20.3889    2.1000    0.0000 N   0  0  0  0  0  0  0  0  0  0  0  0
   19.1765    0.0000    0.0000 O   0  0  0  0  0  0  0  0  0  0  0  0
  1  2  1  0  0  0  0
  2  3  1  0  0  0  0
  3  4  1  0  0  0  0
  4  5  1  0  0  0  0
  5  6  1  0  0  0  0
  5  7  2  0  0  0  0
  1  8  1  0  0  0  0
  8  9  1  0  0  0  0
  9 10  1  0  0  0  0
 10 11  1  0  0  0  0
 11 12  1  0  0  0  0
  6 13  1  0  0  0  0
 13 14  1  0  0  0  0
 14 15  1  0  0  0  0
 15 16  1  0  0  0  0
 16 17  1  0  0  0  0
 17 18  1  0  0  0  0
 18 19  1  0  0  0  0
 18 20  2  0  0  0  0
M  END
> <Molecule Name>
655

> <CDD Number>
CDD-15823

> <Human_sEH_IC50_uM>
22.0

> <Mouse_sEH_IC50_uM>
1.0

$$$$

SketchEl molfile

 19 18  0  0  0  0  0  0  0  0999 V2000
    6.0622    0.7993    0.0000 C   0  0  0  0  0  0  0  0  0  0  0  0
    7.2746    0.0993    0.0000 C   0  0  0  0  0  0  0  0  0  0  0  0
    8.4870    0.7993    0.0000 C   0  0  0  0  0  0  0  0  0  0  0  0
    9.6995    0.0993    0.0000 N   0  0  0  0  0  0  0  0  0  0  0  0
   10.9119    0.7993    0.0000 C   0  0  0  0  0  0  0  0  0  0  0  0
   12.1244    0.0993    0.0000 N   0  0  0  0  0  0  0  0  0  0  0  0
   10.9119    2.1993    0.0000 O   0  0  0  0  0  0  0  0  0  0  0  0
    4.8497    0.0993    0.0000 C   0  0  0  0  0  0  0  0  0  0  0  0
    3.6373    0.7993    0.0000 C   0  0  0  0  0  0  0  0  0  0  0  0
    2.4249    0.0993    0.0000 C   0  0  0  0  0  0  0  0  0  0  0  0
    1.2124    0.7993    0.0000 C   0  0  0  0  0  0  0  0  0  0  0  0
    0.0000    0.0993    0.0000 C   0  0  0  0  0  0  0  0  0  0  0  0
   13.1143    0.7000    0.0000 C   0  0  0  0  0  0  0  0  0  0  0  0
   14.3267    0.0000    0.0000 C   0  0  0  0  0  0  0  0  0  0  0  0
   15.5392    0.7000    0.0000 C   0  0  0  0  0  0  0  0  0  0  0  0
   16.7516    0.0000    0.0000 C   0  0  0  0  0  0  0  0  0  0  0  0
   17.9640    0.7000    0.0000 C   0  0  0  0  0  0  0  0  0  0  0  0
   19.1765    0.0000    0.0000 C   0  0  0  0  0  0  0  0  0  0  0  0
   20.5765    0.0000    0.0000 N   0  0  0  0  0  0  0  0  0  0  0  0
  1  2  1  0  0  0  0
  2  3  1  0  0  0  0
  3  4  1  0  0  0  0
  4  5  1  0  0  0  0
  5  6  1  0  0  0  0
  5  7  2  0  0  0  0
  1  8  1  0  0  0  0
  8  9  1  0  0  0  0
  9 10  1  0  0  0  0
 10 11  1  0  0  0  0
 11 12  1  0  0  0  0
  6 13  1  0  0  0  0
 13 14  1  0  0  0  0
 14 15  1  0  0  0  0
 15 16  1  0  0  0  0
 16 17  1  0  0  0  0
 17 18  1  0  0  0  0
 18 19  3  0  0  0  0
M  END
> <Molecule Name>
654

> <CDD Number>
CDD-15822

> <Human_sEH_IC50_uM>
3.1

> <Mouse_sEH_IC50_uM>
0.38

$$$$

SketchEl molfile

 10 10  0  0  0  0  0  0  0  0999 V2000
    1.2124    2.8000    0.0000 C   0  0  0  0  0  0  0  0  0  0  0  0
    0.0000    2.1000    0.0000 C   0  0  0  0  0  0  0  0  0  0  0  0
    0.0000    0.7000    0.0000 C   0  0  0  0  0  0  0  0  0  0  0  0
    1.2124    0.0000    0.0000 C   0  0  0  0  0  0  0  0  0  0  0  0
    2.4249    0.7000    0.0000 C   0  0  0  0  0  0  0  0  0  0  0  0
    2.4249    2.1000    0.0000 C   0  0  0  0  0  0  0  0  0  0  0  0
    3.6373    0.0000    0.0000 N   0  0  0  0  0  0  0  0  0  0  0  0
    4.8497    0.7000    0.0000 C   0  0  0  0  0  0  0  0  0  0  0  0
    6.0622    0.0000    0.0000 C   0  0  0  0  0  0  0  0  0  0  0  0
    4.8497    2.1000    0.0000 O   0  0  0  0  0  0  0  0  0  0  0  0
  1  2  1  0  0  0  0
  2  3  1  0  0  0  0
  3  4  1  0  0  0  0
  4  5  1  0  0  0  0
  5  6  1  0  0  0  0
  6  1  1  0  0  0  0
  5  7  1  0  0  0  0
  7  8  1  0  0  0  0
  8  9  1  0  0  0  0
  8 10  2  0  0  0  0
M  END
> <Molecule Name>
653

> <CDD Number>
CDD-16148

> <Human_sEH_IC50_uM>
500.0

> <Mouse_sEH_IC50_uM>
500.0

$$$$

SketchEl molfile

 19 20  0  0  0  0  0  0  0  0999 V2000
    8.4870    2.8000    0.0000 C   0  0  0  0  0  0  0  0  0  0  0  0
    7.2746    2.1000    0.0000 N   0  0  0  0  0  0  0  0  0  0  0  0
    6.0622    2.8000    0.0000 C   0  0  0  0  0  0  0  0  0  0  0  0
    4.8497    2.1000    0.0000 N   0  0  0  0  0  0  0  0  0  0  0  0
    6.0622    4.2000    0.0000 O   0  0  0  0  0  0  0  0  0  0  0  0
    3.6373    2.8000    0.0000 C   0  0  0  0  0  0  0  0  0  0  0  0
    2.4249    2.1000    0.0000 C   0  0  0  0  0  0  0  0  0  0  0  0
    1.2124    2.8000    0.0000 C   0  0  0  0  0  0  0  0  0  0  0  0
    0.0000    2.1000    0.0000 C   0  0  0  0  0  0  0  0  0  0  0  0
    0.0000    0.7000    0.0000 C   0  0  0  0  0  0  0  0  0  0  0  0
    1.2124    0.0000    0.0000 C   0  0  0  0  0  0  0  0  0  0  0  0
    2.4249    0.7000    0.0000 C   0  0  0  0  0  0  0  0  0  0  0  0
    9.6995    2.1000    0.0000 C   0  0  0  0  0  0  0  0  0  0  0  0
   10.9119    2.8000    0.0000 C   0  0  0  0  0  0  0  0  0  0  0  0
   12.1244    2.1000    0.0000 C   0  0  0  0  0  0  0  0  0  0  0  0
   13.3368    2.8000    0.0000 C   0  0  0  0  0  0  0  0  0  0  0  0
   13.3368    4.2000    0.0000 C   0  0  0  0  0  0  0  0  0  0  0  0
   12.1244    4.9000    0.0000 C   0  0  0  0  0  0  0  0  0  0  0  0
   10.9119    4.2000    0.0000 C   0  0  0  0  0  0  0  0  0  0  0  0
  1  2  1  0  0  0  0
  2  3  1  0  0  0  0
  3  4  1  0  0  0  0
  3  5  2  0  0  0  0
  4  6  1  0  0  0  0
  6  7  1  0  0  0  0
  7  8  1  0  0  0  0
  8  9  1  0  0  0  0
  9 10  1  0  0  0  0
 10 11  1  0  0  0  0
 11 12  1  0  0  0  0
 12  7  1  0  0  0  0
  1 13  1  0  0  0  0
 13 14  1  0  0  0  0
 14 15  2  0  0  0  0
 15 16  1  0  0  0  0
 16 17  2  0  0  0  0
 17 18  1  0  0  0  0
 18 19  2  0  0  0  0
 19 14  1  0  0  0  0
M  END
> <Molecule Name>
651

> <CDD Number>
CDD-15966

> <Human_sEH_IC50_uM>
0.65

> <Mouse_sEH_IC50_uM>
0.05

$$$$

SketchEl molfile

 20 19  0  0  0  0  0  0  0  0999 V2000
   10.9119    0.7728    0.0000 C   0  0  0  0  0  0  0  0  0  0  0  0
   12.1244    0.0728    0.0000 C   0  0  0  0  0  0  0  0  0  0  0  0
   13.3368    0.7728    0.0000 C   0  0  0  0  0  0  0  0  0  0  0  0
   14.5492    0.0728    0.0000 N   0  0  0  0  0  0  0  0  0  0  0  0
   15.7617    0.7728    0.0000 C   0  0  0  0  0  0  0  0  0  0  0  0
   16.9741    0.0728    0.0000 N   0  0  0  0  0  0  0  0  0  0  0  0
   15.7617    2.1728    0.0000 O   0  0  0  0  0  0  0  0  0  0  0  0
    9.6995    0.0728    0.0000 C   0  0  0  0  0  0  0  0  0  0  0  0
    8.4870    0.7728    0.0000 C   0  0  0  0  0  0  0  0  0  0  0  0
    7.2746    0.0728    0.0000 C   0  0  0  0  0  0  0  0  0  0  0  0
    6.0622    0.7728    0.0000 C   0  0  0  0  0  0  0  0  0  0  0  0
    4.8497    0.0728    0.0000 C   0  0  0  0  0  0  0  0  0  0  0  0
    3.6373    0.7728    0.0000 C   0  0  0  0  0  0  0  0  0  0  0  0
    2.4249    0.0728    0.0000 C   0  0  0  0  0  0  0  0  0  0  0  0
    1.2124    0.7728    0.0000 C   0  0  0  0  0  0  0  0  0  0  0  0
    0.0000    0.0728    0.0000 C   0  0  0  0  0  0  0  0  0  0  0  0
   17.9640    0.6734    0.0000 C   0  0  0  0  0  0  0  0  0  0  0  0
   19.1914    0.0000    0.0000 C   0  0  0  0  0  0  0  0  0  0  0  0
   20.3883    0.7262    0.0000 C   0  0  0  0  0  0  0  0  0  0  0  0
   17.9640    2.0734    0.0000 C   0  0  0  0  0  0  0  0  0  0  0  0
  1  2  1  0  0  0  0
  2  3  1  0  0  0  0
  3  4  1  0  0  0  0
  4  5  1  0  0  0  0
  5  6  1  0  0  0  0
  5  7  2  0  0  0  0
  1  8  1  0  0  0  0
  8  9  1  0  0  0  0
  9 10  1  0  0  0  0
 10 11  1  0  0  0  0
 11 12  1  0  0  0  0
 12 13  1  0  0  0  0
 13 14  1  0  0  0  0
 14 15  1  0  0  0  0
 15 16  1  0  0  0  0
  6 17  1  0  0  0  0
 17 18  1  0  0  0  0
 18 19  1  0  0  0  0
 17 20  1  0  0  0  0
M  END
> <Molecule Name>
650

> <CDD Number>
CDD-15842

> <Human_sEH_IC50_uM>
1.0

> <Mouse_sEH_IC50_uM>
0.34

$$$$

SketchEl molfile

 21 20  0  0  0  0  0  0  0  0999 V2000
    0.0000    0.1721    0.0000 C   0  0  0  0  0  0  0  0  0  0  0  0
    1.2124    0.8721    0.0000 C   0  0  0  0  0  0  0  0  0  0  0  0
    2.4249    0.1721    0.0000 C   0  0  0  0  0  0  0  0  0  0  0  0
    3.6373    0.8721    0.0000 C   0  0  0  0  0  0  0  0  0  0  0  0
    4.8497    0.1721    0.0000 C   0  0  0  0  0  0  0  0  0  0  0  0
    6.0622    0.8721    0.0000 C   0  0  0  0  0  0  0  0  0  0  0  0
    7.2746    0.1721    0.0000 C   0  0  0  0  0  0  0  0  0  0  0  0
    8.4870    0.8721    0.0000 C   0  0  0  0  0  0  0  0  0  0  0  0
    9.6995    0.1721    0.0000 C   0  0  0  0  0  0  0  0  0  0  0  0
   10.9119    0.8721    0.0000 C   0  0  0  0  0  0  0  0  0  0  0  0
   12.1244    0.1721    0.0000 C   0  0  0  0  0  0  0  0  0  0  0  0
   13.3368    0.8721    0.0000 C   0  0  0  0  0  0  0  0  0  0  0  0
   14.5492    0.1721    0.0000 N   0  0  0  0  0  0  0  0  0  0  0  0
   15.5392    0.7728    0.0000 C   0  0  0  0  0  0  0  0  0  0  0  0
   16.7516    0.0728    0.0000 N   0  0  0  0  0  0  0  0  0  0  0  0
   15.5392    2.1728    0.0000 O   0  0  0  0  0  0  0  0  0  0  0  0
   17.7416    0.6734    0.0000 C   0  0  0  0  0  0  0  0  0  0  0  0
   18.9690    0.0000    0.0000 C   0  0  0  0  0  0  0  0  0  0  0  0
   20.1659    0.7262    0.0000 C   0  0  0  0  0  0  0  0  0  0  0  0
   21.3933    0.0528    0.0000 C   0  0  0  0  0  0  0  0  0  0  0  0
   20.1659    2.1262    0.0000 C   0  0  0  0  0  0  0  0  0  0  0  0
  1  2  1  0  0  0  0
  2  3  1  0  0  0  0
  3  4  1  0  0  0  0
  4  5  1  0  0  0  0
  5  6  1  0  0  0  0
  6  7  1  0  0  0  0
  7  8  1  0  0  0  0
  8  9  1  0  0  0  0
  9 10  1  0  0  0  0
 10 11  1  0  0  0  0
 11 12  1  0  0  0  0
 12 13  1  0  0  0  0
 13 14  1  0  0  0  0
 14 15  1  0  0  0  0
 14 16  2  0  0  0  0
 15 17  1  0  0  0  0
 17 18  1  0  0  0  0
 18 19  1  0  0  0  0
 19 20  1  0  0  0  0
 19 21  1  0  0  0  0
M  END
> <Molecule Name>
649

> <CDD Number>
CDD-15849

> <Human_sEH_IC50_uM>
0.25

> <Mouse_sEH_IC50_uM>
0.05

$$$$

SketchEl molfile

 15 15  0  0  0  0  0  0  0  0999 V2000
    0.0000    0.8987    0.0000 C   0  0  0  0  0  0  0  0  0  0  0  0
    1.2124    0.1987    0.0000 C   0  0  0  0  0  0  0  0  0  0  0  0
    2.4249    0.8987    0.0000 C   0  0  0  0  0  0  0  0  0  0  0  0
    2.4249    2.2987    0.0000 C   0  0  0  0  0  0  0  0  0  0  0  0
    1.2124    2.9987    0.0000 C   0  0  0  0  0  0  0  0  0  0  0  0
    0.0000    2.2987    0.0000 C   0  0  0  0  0  0  0  0  0  0  0  0
    3.6373    0.1987    0.0000 N   0  0  0  0  0  0  0  0  0  0  0  0
    4.6273    0.7993    0.0000 C   0  0  0  0  0  0  0  0  0  0  0  0
    5.8397    0.0993    0.0000 N   0  0  0  0  0  0  0  0  0  0  0  0
    4.6273    2.1993    0.0000 O   0  0  0  0  0  0  0  0  0  0  0  0
    6.8296    0.7000    0.0000 C   0  0  0  0  0  0  0  0  0  0  0  0
    8.0421    0.0000    0.0000 C   0  0  0  0  0  0  0  0  0  0  0  0
    9.2545    0.7000    0.0000 C   0  0  0  0  0  0  0  0  0  0  0  0
    7.8196    1.6899    0.0000 C   0  0  0  0  0  0  0  0  0  0  0  0
    5.8397    1.6899    0.0000 C   0  0  0  0  0  0  0  0  0  0  0  0
  1  2  1  0  0  0  0
  2  3  1  0  0  0  0
  3  4  1  0  0  0  0
  4  5  1  0  0  0  0
  5  6  1  0  0  0  0
  6  1  1  0  0  0  0
  3  7  1  0  0  0  0
  7  8  1  0  0  0  0
  8  9  1  0  0  0  0
  8 10  2  0  0  0  0
  9 11  1  0  0  0  0
 11 12  1  0  0  0  0
 12 13  1  0  0  0  0
 11 14  1  0  0  0  0
 11 15  1  0  0  0  0
M  END
> <Molecule Name>
648

> <CDD Number>
CDD-15897

> <Human_sEH_IC50_uM>
2.56

> <Mouse_sEH_IC50_uM>
0.11

$$$$

SketchEl molfile

 18 17  0  0  0  0  0  0  0  0999 V2000
    0.0000    0.0000    0.0000 C   0  0  0  0  0  0  0  0  0  0  0  0
    1.2124    0.7000    0.0000 C   0  0  0  0  0  0  0  0  0  0  0  0
    2.4249    0.0000    0.0000 C   0  0  0  0  0  0  0  0  0  0  0  0
    3.6373    0.7000    0.0000 C   0  0  0  0  0  0  0  0  0  0  0  0
    4.8497    0.0000    0.0000 C   0  0  0  0  0  0  0  0  0  0  0  0
    6.0622    0.7000    0.0000 C   0  0  0  0  0  0  0  0  0  0  0  0
    7.2746    0.0000    0.0000 C   0  0  0  0  0  0  0  0  0  0  0  0
    8.4870    0.7000    0.0000 C   0  0  0  0  0  0  0  0  0  0  0  0
    9.6995    0.0000    0.0000 C   0  0  0  0  0  0  0  0  0  0  0  0
   10.9119    0.7000    0.0000 C   0  0  0  0  0  0  0  0  0  0  0  0
   12.1244    0.0000    0.0000 C   0  0  0  0  0  0  0  0  0  0  0  0
   13.3368    0.7000    0.0000 C   0  0  0  0  0  0  0  0  0  0  0  0
   14.5492    0.0000    0.0000 N   0  0  0  0  0  0  0  0  0  0  0  0
   15.7617    0.7000    0.0000 C   0  0  0  0  0  0  0  0  0  0  0  0
   16.9741    0.0000    0.0000 C   0  0  0  0  0  0  0  0  0  0  0  0
   15.7617    2.1000    0.0000 O   0  0  0  0  0  0  0  0  0  0  0  0
   18.1865    0.7000    0.0000 C   0  0  0  0  0  0  0  0  0  0  0  0
   19.3990    0.0000    0.0000 C   0  0  0  0  0  0  0  0  0  0  0  0
  1  2  1  0  0  0  0
  2  3  1  0  0  0  0
  3  4  1  0  0  0  0
  4  5  1  0  0  0  0
  5  6  1  0  0  0  0
  6  7  1  0  0  0  0
  7  8  1  0  0  0  0
  8  9  1  0  0  0  0
  9 10  1  0  0  0  0
 10 11  1  0  0  0  0
 11 12  1  0  0  0  0
 12 13  1  0  0  0  0
 13 14  1  0  0  0  0
 14 15  1  0  0  0  0
 14 16  2  0  0  0  0
 15 17  1  0  0  0  0
 17 18  1  0  0  0  0
M  END
> <Molecule Name>
647

> <CDD Number>
CDD-16113

> <Human_sEH_IC50_uM>
500.0

> <Mouse_sEH_IC50_uM>
18.0

$$$$

SketchEl molfile

 20 22  0  0  0  0  0  0  0  0999 V2000
    0.0000    0.7000    0.0000 C   0  0  0  0  0  0  0  0  0  0  0  0
    1.2124    0.0000    0.0000 C   0  0  0  0  0  0  0  0  0  0  0  0
    2.4249    0.7000    0.0000 C   0  0  0  0  0  0  0  0  0  0  0  0
    2.4249    2.1000    0.0000 C   0  0  0  0  0  0  0  0  0  0  0  0
    1.2124    2.8000    0.0000 C   0  0  0  0  0  0  0  0  0  0  0  0
    0.0000    2.1000    0.0000 C   0  0  0  0  0  0  0  0  0  0  0  0
    3.6373    0.0000    0.0000 N   0  0  0  0  0  0  0  0  0  0  0  0
    4.8497    0.7000    0.0000 C   0  0  0  0  0  0  0  0  0  0  0  0
    6.0622    0.0000    0.0000 O   0  0  0  0  0  0  0  0  0  0  0  0
    4.8497    2.1000    0.0000 O   0  0  0  0  0  0  0  0  0  0  0  0
    7.2746    0.7000    0.0000 C   0  0  0  0  0  0  0  0  0  0  0  0
    8.4870    0.0000    0.0000 C   0  0  0  0  0  0  0  0  0  0  0  0
    9.6995    0.7000    0.0000 C   0  0  0  0  0  0  0  0  0  0  0  0
    9.6995    2.1000    0.0000 C   0  0  0  0  0  0  0  0  0  0  0  0
    8.4870    2.8000    0.0000 C   0  0  0  0  0  0  0  0  0  0  0  0
    7.2746    2.1000    0.0000 C   0  0  0  0  0  0  0  0  0  0  0  0
   10.9119    0.0000    0.0000 C   0  0  0  0  0  0  0  0  0  0  0  0
   12.1244    0.7000    0.0000 C   0  0  0  0  0  0  0  0  0  0  0  0
   12.1244    2.1000    0.0000 C   0  0  0  0  0  0  0  0  0  0  0  0
   10.9119    2.8000    0.0000 C   0  0  0  0  0  0  0  0  0  0  0  0
  1  2  1  0  0  0  0
  2  3  1  0  0  0  0
  3  4  1  0  0  0  0
  4  5  1  0  0  0  0
  5  6  1  0  0  0  0
  6  1  1  0  0  0  0
  3  7  1  0  0  0  0
  7  8  1  0  0  0  0
  8  9  1  0  0  0  0
  8 10  2  0  0  0  0
  9 11  1  0  0  0  0
 11 12  2  0  0  0  0
 12 13  1  0  0  0  0
 13 14  2  0  0  0  0
 14 15  1  0  0  0  0
 15 16  2  0  0  0  0
 16 11  1  0  0  0  0
 13 17  1  0  0  0  0
 17 18  2  0  0  0  0
 18 19  1  0  0  0  0
 19 20  2  0  0  0  0
 20 14  1  0  0  0  0
M  END
> <Molecule Name>
646

> <CDD Number>
CDD-16095

> <Human_sEH_IC50_uM>
110.0

> <Mouse_sEH_IC50_uM>
55.0

$$$$

SketchEl molfile

 19 18  0  0  0  0  0  0  0  0999 V2000
   10.9119    0.7728    0.0000 C   0  0  0  0  0  0  0  0  0  0  0  0
   12.1244    0.0728    0.0000 C   0  0  0  0  0  0  0  0  0  0  0  0
   13.3368    0.7728    0.0000 C   0  0  0  0  0  0  0  0  0  0  0  0
   14.5492    0.0728    0.0000 N   0  0  0  0  0  0  0  0  0  0  0  0
   15.7617    0.7728    0.0000 C   0  0  0  0  0  0  0  0  0  0  0  0
   16.9741    0.0728    0.0000 N   0  0  0  0  0  0  0  0  0  0  0  0
   15.7617    2.1728    0.0000 O   0  0  0  0  0  0  0  0  0  0  0  0
    9.6995    0.0728    0.0000 C   0  0  0  0  0  0  0  0  0  0  0  0
    8.4870    0.7728    0.0000 C   0  0  0  0  0  0  0  0  0  0  0  0
    7.2746    0.0728    0.0000 C   0  0  0  0  0  0  0  0  0  0  0  0
    6.0622    0.7728    0.0000 C   0  0  0  0  0  0  0  0  0  0  0  0
    4.8497    0.0728    0.0000 C   0  0  0  0  0  0  0  0  0  0  0  0
    3.6373    0.7728    0.0000 C   0  0  0  0  0  0  0  0  0  0  0  0
    2.4249    0.0728    0.0000 C   0  0  0  0  0  0  0  0  0  0  0  0
    1.2124    0.7728    0.0000 C   0  0  0  0  0  0  0  0  0  0  0  0
    0.0000    0.0728    0.0000 C   0  0  0  0  0  0  0  0  0  0  0  0
   17.9640    0.6734    0.0000 C   0  0  0  0  0  0  0  0  0  0  0  0
   19.1914    0.0000    0.0000 C   0  0  0  0  0  0  0  0  0  0  0  0
   20.3883    0.7262    0.0000 Br  0  0  0  0  0  0  0  0  0  0  0  0
  1  2  1  0  0  0  0
  2  3  1  0  0  0  0
  3  4  1  0  0  0  0
  4  5  1  0  0  0  0
  5  6  1  0  0  0  0
  5  7  2  0  0  0  0
  1  8  1  0  0  0  0
  8  9  1  0  0  0  0
  9 10  1  0  0  0  0
 10 11  1  0  0  0  0
 11 12  1  0  0  0  0
 12 13  1  0  0  0  0
 13 14  1  0  0  0  0
 14 15  1  0  0  0  0
 15 16  1  0  0  0  0
  6 17  1  0  0  0  0
 17 18  1  0  0  0  0
 18 19  1  0  0  0  0
M  END
> <Molecule Name>
645

> <CDD Number>
CDD-15838

> <Human_sEH_IC50_uM>
15.0

> <Mouse_sEH_IC50_uM>
19.0

$$$$

SketchEl molfile

 21 20  0  0  0  0  0  0  0  0999 V2000
   10.9119    0.7993    0.0000 C   0  0  0  0  0  0  0  0  0  0  0  0
   12.1244    0.0993    0.0000 C   0  0  0  0  0  0  0  0  0  0  0  0
   13.3368    0.7993    0.0000 C   0  0  0  0  0  0  0  0  0  0  0  0
   14.5492    0.0993    0.0000 N   0  0  0  0  0  0  0  0  0  0  0  0
   15.7617    0.7993    0.0000 C   0  0  0  0  0  0  0  0  0  0  0  0
   16.9741    0.0993    0.0000 N   0  0  0  0  0  0  0  0  0  0  0  0
   15.7617    2.1993    0.0000 O   0  0  0  0  0  0  0  0  0  0  0  0
    9.6995    0.0993    0.0000 C   0  0  0  0  0  0  0  0  0  0  0  0
    8.4870    0.7993    0.0000 C   0  0  0  0  0  0  0  0  0  0  0  0
    7.2746    0.0993    0.0000 C   0  0  0  0  0  0  0  0  0  0  0  0
    6.0622    0.7993    0.0000 C   0  0  0  0  0  0  0  0  0  0  0  0
    4.8497    0.0993    0.0000 C   0  0  0  0  0  0  0  0  0  0  0  0
    3.6373    0.7993    0.0000 C   0  0  0  0  0  0  0  0  0  0  0  0
    2.4249    0.0993    0.0000 C   0  0  0  0  0  0  0  0  0  0  0  0
    1.2124    0.7993    0.0000 C   0  0  0  0  0  0  0  0  0  0  0  0
    0.0000    0.0993    0.0000 C   0  0  0  0  0  0  0  0  0  0  0  0
   17.9640    0.7000    0.0000 O   0  0  0  0  0  0  0  0  0  0  0  0
   19.1765    0.0000    0.0000 C   0  0  0  0  0  0  0  0  0  0  0  0
   20.3888    0.7001    0.0000 C   0  0  0  0  0  0  0  0  0  0  0  0
   21.6014    0.0003    0.0000 O   0  0  0  0  0  0  0  0  0  0  0  0
   20.3888    2.1001    0.0000 O   0  0  0  0  0  0  0  0  0  0  0  0
  1  2  1  0  0  0  0
  2  3  1  0  0  0  0
  3  4  1  0  0  0  0
  4  5  1  0  0  0  0
  5  6  1  0  0  0  0
  5  7  2  0  0  0  0
  1  8  1  0  0  0  0
  8  9  1  0  0  0  0
  9 10  1  0  0  0  0
 10 11  1  0  0  0  0
 11 12  1  0  0  0  0
 12 13  1  0  0  0  0
 13 14  1  0  0  0  0
 14 15  1  0  0  0  0
 15 16  1  0  0  0  0
  6 17  1  0  0  0  0
 17 18  1  0  0  0  0
 18 19  1  0  0  0  0
 19 20  1  0  0  0  0
 19 21  2  0  0  0  0
M  END
> <Molecule Name>
644

> <CDD Number>
CDD-15847

> <Human_sEH_IC50_uM>
40.0

> <Mouse_sEH_IC50_uM>
35.0

$$$$

SketchEl molfile

 23 23  0  0  0  0  0  0  0  0999 V2000
    0.0000    0.8987    0.0000 C   0  0  0  0  0  0  0  0  0  0  0  0
    1.2124    0.1987    0.0000 C   0  0  0  0  0  0  0  0  0  0  0  0
    2.4249    0.8987    0.0000 C   0  0  0  0  0  0  0  0  0  0  0  0
    2.4249    2.2987    0.0000 C   0  0  0  0  0  0  0  0  0  0  0  0
    1.2124    2.9987    0.0000 C   0  0  0  0  0  0  0  0  0  0  0  0
    0.0000    2.2987    0.0000 C   0  0  0  0  0  0  0  0  0  0  0  0
    3.6373    0.1987    0.0000 N   0  0  0  0  0  0  0  0  0  0  0  0
    4.6273    0.7993    0.0000 C   0  0  0  0  0  0  0  0  0  0  0  0
    5.8397    0.0993    0.0000 N   0  0  0  0  0  0  0  0  0  0  0  0
    4.6273    2.1993    0.0000 O   0  0  0  0  0  0  0  0  0  0  0  0
    6.8296    0.7000    0.0000 C   0  0  0  0  0  0  0  0  0  0  0  0
    8.0421    0.0000    0.0000 C   0  0  0  0  0  0  0  0  0  0  0  0
    9.2545    0.7000    0.0000 C   0  0  0  0  0  0  0  0  0  0  0  0
   10.4669    0.0000    0.0000 C   0  0  0  0  0  0  0  0  0  0  0  0
   11.6794    0.7000    0.0000 C   0  0  0  0  0  0  0  0  0  0  0  0
   12.8918    0.0000    0.0000 C   0  0  0  0  0  0  0  0  0  0  0  0
   14.1043    0.7000    0.0000 C   0  0  0  0  0  0  0  0  0  0  0  0
   15.3167    0.0000    0.0000 C   0  0  0  0  0  0  0  0  0  0  0  0
   16.5291    0.7000    0.0000 C   0  0  0  0  0  0  0  0  0  0  0  0
   17.7416    0.0000    0.0000 C   0  0  0  0  0  0  0  0  0  0  0  0
   18.9540    0.7000    0.0000 C   0  0  0  0  0  0  0  0  0  0  0  0
   20.1664    0.0000    0.0000 N   0  0  0  0  0  0  0  0  0  0  0  0
   18.9540    2.1000    0.0000 O   0  0  0  0  0  0  0  0  0  0  0  0
  1  2  1  0  0  0  0
  2  3  1  0  0  0  0
  3  4  1  0  0  0  0
  4  5  1  0  0  0  0
  5  6  1  0  0  0  0
  6  1  1  0  0  0  0
  3  7  1  0  0  0  0
  7  8  1  0  0  0  0
  8  9  1  0  0  0  0
  8 10  2  0  0  0  0
  9 11  1  0  0  0  0
 11 12  1  0  0  0  0
 12 13  1  0  0  0  0
 13 14  1  0  0  0  0
 14 15  1  0  0  0  0
 15 16  1  0  0  0  0
 16 17  1  0  0  0  0
 17 18  1  0  0  0  0
 18 19  1  0  0  0  0
 19 20  1  0  0  0  0
 20 21  1  0  0  0  0
 21 22  1  0  0  0  0
 21 23  2  0  0  0  0
M  END
> <Molecule Name>
643

> <CDD Number>
CDD-15929

> <Human_sEH_IC50_uM>
0.1

> <Mouse_sEH_IC50_uM>
0.05

$$$$

SketchEl molfile

 17 18  0  0  0  0  0  0  0  0999 V2000
    0.0000    2.2987    0.0000 C   0  0  0  0  0  0  0  0  0  0  0  0
    0.0000    0.8987    0.0000 C   0  0  0  0  0  0  0  0  0  0  0  0
    1.2124    0.1987    0.0000 C   0  0  0  0  0  0  0  0  0  0  0  0
    2.4249    0.8987    0.0000 C   0  0  0  0  0  0  0  0  0  0  0  0
    2.4249    2.2987    0.0000 C   0  0  0  0  0  0  0  0  0  0  0  0
    1.2124    2.9987    0.0000 C   0  0  0  0  0  0  0  0  0  0  0  0
    3.6373    0.1987    0.0000 N   0  0  0  0  0  0  0  0  0  0  0  0
    4.6273    0.7993    0.0000 C   0  0  0  0  0  0  0  0  0  0  0  0
    5.8397    0.0993    0.0000 N   0  0  0  0  0  0  0  0  0  0  0  0
    4.6273    2.1993    0.0000 S   0  0  0  0  0  0  0  0  0  0  0  0
    6.8296    0.7000    0.0000 C   0  0  0  0  0  0  0  0  0  0  0  0
    8.0421    0.0000    0.0000 C   0  0  0  0  0  0  0  0  0  0  0  0
    9.2545    0.7000    0.0000 C   0  0  0  0  0  0  0  0  0  0  0  0
    9.2545    2.1000    0.0000 C   0  0  0  0  0  0  0  0  0  0  0  0
    8.0421    2.8000    0.0000 C   0  0  0  0  0  0  0  0  0  0  0  0
    6.8296    2.1000    0.0000 C   0  0  0  0  0  0  0  0  0  0  0  0
   10.4669    2.8000    0.0000 C   0  0  0  0  0  0  0  0  0  0  0  0
  1  2  1  0  0  0  0
  2  3  1  0  0  0  0
  3  4  1  0  0  0  0
  4  5  1  0  0  0  0
  5  6  1  0  0  0  0
  6  1  1  0  0  0  0
  4  7  1  0  0  0  0
  7  8  1  0  0  0  0
  8  9  1  0  0  0  0
  8 10  2  0  0  0  0
  9 11  1  0  0  0  0
 11 12  2  0  0  0  0
 12 13  1  0  0  0  0
 13 14  2  0  0  0  0
 14 15  1  0  0  0  0
 15 16  2  0  0  0  0
 16 11  1  0  0  0  0
 14 17  1  0  0  0  0
M  END
> <Molecule Name>
642

> <CDD Number>
CDD-15787

> <Human_sEH_IC50_uM>
0.15

> <Mouse_sEH_IC50_uM>
0.1

$$$$

SketchEl molfile

 15 15  0  0  0  0  0  0  0  0999 V2000
    0.0000    2.2510    0.0000 C   0  0  0  0  0  0  0  0  0  0  0  0
    1.2124    1.5510    0.0000 C   0  0  0  0  0  0  0  0  0  0  0  0
    2.4249    2.2510    0.0000 C   0  0  0  0  0  0  0  0  0  0  0  0
    2.4249    3.6510    0.0000 C   0  0  0  0  0  0  0  0  0  0  0  0
    1.2124    4.3510    0.0000 C   0  0  0  0  0  0  0  0  0  0  0  0
    0.0000    3.6510    0.0000 C   0  0  0  0  0  0  0  0  0  0  0  0
    3.6373    1.5510    0.0000 N   0  0  0  0  0  0  0  0  0  0  0  0
    4.6273    2.1516    0.0000 C   0  0  0  0  0  0  0  0  0  0  0  0
    5.8397    1.4516    0.0000 N   0  0  0  0  0  0  0  0  0  0  0  0
    4.6273    3.5516    0.0000 O   0  0  0  0  0  0  0  0  0  0  0  0
    6.8296    2.0523    0.0000 C   0  0  0  0  0  0  0  0  0  0  0  0
    8.0421    1.3523    0.0000 C   0  0  0  0  0  0  0  0  0  0  0  0
    9.0320    2.3422    0.0000 F   0  0  0  0  0  0  0  0  0  0  0  0
    9.2545    0.6523    0.0000 F   0  0  0  0  0  0  0  0  0  0  0  0
    7.6797    0.0000    0.0000 F   0  0  0  0  0  0  0  0  0  0  0  0
  1  2  1  0  0  0  0
  2  3  1  0  0  0  0
  3  4  1  0  0  0  0
  4  5  1  0  0  0  0
  5  6  1  0  0  0  0
  6  1  1  0  0  0  0
  3  7  1  0  0  0  0
  7  8  1  0  0  0  0
  8  9  1  0  0  0  0
  8 10  2  0  0  0  0
  9 11  1  0  0  0  0
 11 12  1  0  0  0  0
 12 13  1  0  0  0  0
 12 14  1  0  0  0  0
 12 15  1  0  0  0  0
M  END
> <Molecule Name>
641

> <CDD Number>
CDD-15894

> <Human_sEH_IC50_uM>
0.28

> <Mouse_sEH_IC50_uM>
0.25

$$$$

SketchEl molfile

 21 21  0  0  0  0  0  0  0  0999 V2000
    0.0000    2.2987    0.0000 C   0  0  0  0  0  0  0  0  0  0  0  0
    1.2124    1.5987    0.0000 C   0  0  0  0  0  0  0  0  0  0  0  0
    2.4249    2.2987    0.0000 C   0  0  0  0  0  0  0  0  0  0  0  0
    2.4249    3.6987    0.0000 C   0  0  0  0  0  0  0  0  0  0  0  0
    1.2124    4.3987    0.0000 C   0  0  0  0  0  0  0  0  0  0  0  0
    0.0000    3.6987    0.0000 C   0  0  0  0  0  0  0  0  0  0  0  0
    3.6373    1.5987    0.0000 N   0  0  0  0  0  0  0  0  0  0  0  0
    4.6273    2.1993    0.0000 C   0  0  0  0  0  0  0  0  0  0  0  0
    5.8397    1.4993    0.0000 N   0  0  0  0  0  0  0  0  0  0  0  0
    4.6273    3.5993    0.0000 O   0  0  0  0  0  0  0  0  0  0  0  0
    6.8296    2.1000    0.0000 C   0  0  0  0  0  0  0  0  0  0  0  0
    8.0421    1.4000    0.0000 C   0  0  0  0  0  0  0  0  0  0  0  0
    9.2545    2.1000    0.0000 C   0  0  0  0  0  0  0  0  0  0  0  0
   10.4669    1.4000    0.0000 C   0  0  0  0  0  0  0  0  0  0  0  0
   11.6794    2.1000    0.0000 C   0  0  0  0  0  0  0  0  0  0  0  0
   12.8918    1.4000    0.0000 C   0  0  0  0  0  0  0  0  0  0  0  0
   14.1043    2.1000    0.0000 C   0  0  0  0  0  0  0  0  0  0  0  0
   15.3167    1.4000    0.0000 C   0  0  0  0  0  0  0  0  0  0  0  0
   16.5291    2.1000    0.0000 O   0  0  0  0  0  0  0  0  0  0  0  0
   15.3167    0.0000    0.0000 O   0  0  0  0  0  0  0  0  0  0  0  0
   17.7416    1.4000    0.0000 C   0  0  0  0  0  0  0  0  0  0  0  0
  1  2  1  0  0  0  0
  2  3  1  0  0  0  0
  3  4  1  0  0  0  0
  4  5  1  0  0  0  0
  5  6  1  0  0  0  0
  6  1  1  0  0  0  0
  3  7  1  0  0  0  0
  7  8  1  0  0  0  0
  8  9  1  0  0  0  0
  8 10  2  0  0  0  0
  9 11  1  0  0  0  0
 11 12  1  0  0  0  0
 12 13  1  0  0  0  0
 13 14  1  0  0  0  0
 14 15  1  0  0  0  0
 15 16  1  0  0  0  0
 16 17  1  0  0  0  0
 17 18  1  0  0  0  0
 18 19  1  0  0  0  0
 18 20  2  0  0  0  0
 19 21  1  0  0  0  0
M  END
> <Molecule Name>
640

> <CDD Number>
CDD-15925

> <Human_sEH_IC50_uM>
0.37

> <Mouse_sEH_IC50_uM>
0.05

$$$$

SketchEl molfile

 14 14  0  0  0  0  0  0  0  0999 V2000
    2.5647    0.7993    0.0000 C   0  0  0  0  0  0  0  0  0  0  0  0
    3.7772    0.0993    0.0000 C   0  0  0  0  0  0  0  0  0  0  0  0
    4.9896    0.7993    0.0000 C   0  0  0  0  0  0  0  0  0  0  0  0
    4.9896    2.1993    0.0000 C   0  0  0  0  0  0  0  0  0  0  0  0
    3.7772    2.8993    0.0000 C   0  0  0  0  0  0  0  0  0  0  0  0
    2.5647    2.1993    0.0000 C   0  0  0  0  0  0  0  0  0  0  0  0
    1.3523    2.8993    0.0000 C   0  0  0  0  0  0  0  0  0  0  0  0
    0.9899    4.2516    0.0000 C   0  0  0  0  0  0  0  0  0  0  0  0
    0.0000    2.5370    0.0000 C   0  0  0  0  0  0  0  0  0  0  0  0
    6.2020    0.0993    0.0000 N   0  0  0  0  0  0  0  0  0  0  0  0
    7.1920    0.7000    0.0000 C   0  0  0  0  0  0  0  0  0  0  0  0
    8.4044    0.0000    0.0000 N   0  0  0  0  0  0  0  0  0  0  0  0
    7.1920    2.1000    0.0000 O   0  0  0  0  0  0  0  0  0  0  0  0
    9.3944    0.6007    0.0000 C   0  0  0  0  0  0  0  0  0  0  0  0
  1  2  2  0  0  0  0
  2  3  1  0  0  0  0
  3  4  2  0  0  0  0
  4  5  1  0  0  0  0
  5  6  2  0  0  0  0
  6  1  1  0  0  0  0
  6  7  1  0  0  0  0
  7  8  1  0  0  0  0
  7  9  1  0  0  0  0
  3 10  1  0  0  0  0
 10 11  1  0  0  0  0
 11 12  1  0  0  0  0
 11 13  2  0  0  0  0
 12 14  1  0  0  0  0
M  END
> <Molecule Name>
639

> <CDD Number>
CDD-16027

> <Human_sEH_IC50_uM>
490.0

> <Mouse_sEH_IC50_uM>
320.0

$$$$

SketchEl molfile

 19 18  0  0  0  0  0  0  0  0999 V2000
    4.8497    0.0000    0.0000 C   0  0  0  0  0  0  0  0  0  0  0  0
    6.0622    0.7000    0.0000 C   0  0  0  0  0  0  0  0  0  0  0  0
    7.2746    0.0000    0.0000 C   0  0  0  0  0  0  0  0  0  0  0  0
    8.4870    0.7000    0.0000 C   0  0  0  0  0  0  0  0  0  0  0  0
    9.6995    0.0000    0.0000 C   0  0  0  0  0  0  0  0  0  0  0  0
   10.9119    0.7000    0.0000 C   0  0  0  0  0  0  0  0  0  0  0  0
   12.1244    0.0000    0.0000 C   0  0  0  0  0  0  0  0  0  0  0  0
   13.3368    0.7000    0.0000 C   0  0  0  0  0  0  0  0  0  0  0  0
   14.5492    0.0000    0.0000 C   0  0  0  0  0  0  0  0  0  0  0  0
   15.7617    0.7000    0.0000 C   0  0  0  0  0  0  0  0  0  0  0  0
   16.9741    0.0000    0.0000 C   0  0  0  0  0  0  0  0  0  0  0  0
   18.1865    0.7000    0.0000 C   0  0  0  0  0  0  0  0  0  0  0  0
   19.3990    0.0000    0.0000 N   0  0  0  0  0  0  0  0  0  0  0  0
   18.1865    2.1000    0.0000 O   0  0  0  0  0  0  0  0  0  0  0  0
   20.6114    0.7000    0.0000 N   0  0  0  0  0  0  0  0  0  0  0  0
    3.6373    0.7000    0.0000 C   0  0  0  0  0  0  0  0  0  0  0  0
    2.4249    0.0000    0.0000 C   0  0  0  0  0  0  0  0  0  0  0  0
    1.2124    0.7000    0.0000 C   0  0  0  0  0  0  0  0  0  0  0  0
    0.0000    0.0000    0.0000 C   0  0  0  0  0  0  0  0  0  0  0  0
  1  2  1  0  0  0  0
  2  3  1  0  0  0  0
  3  4  1  0  0  0  0
  4  5  1  0  0  0  0
  5  6  1  0  0  0  0
  6  7  1  0  0  0  0
  7  8  1  0  0  0  0
  8  9  1  0  0  0  0
  9 10  1  0  0  0  0
 10 11  1  0  0  0  0
 11 12  1  0  0  0  0
 12 13  1  0  0  0  0
 12 14  2  0  0  0  0
 13 15  1  0  0  0  0
  1 16  1  0  0  0  0
 16 17  1  0  0  0  0
 17 18  1  0  0  0  0
 18 19  1  0  0  0  0
M  END
> <Molecule Name>
638

> <CDD Number>
CDD-16126

> <Human_sEH_IC50_uM>
500.0

> <Mouse_sEH_IC50_uM>
500.0

$$$$

SketchEl molfile

 11 10  0  0  0  0  0  0  0  0999 V2000
    0.0000    0.0000    0.0000 C   0  0  0  0  0  0  0  0  0  0  0  0
    1.2124    0.7000    0.0000 C   0  0  0  0  0  0  0  0  0  0  0  0
    2.4249    0.0000    0.0000 C   0  0  0  0  0  0  0  0  0  0  0  0
    3.6373    0.7000    0.0000 C   0  0  0  0  0  0  0  0  0  0  0  0
    4.8497    0.0000    0.0000 C   0  0  0  0  0  0  0  0  0  0  0  0
    6.0622    0.7000    0.0000 C   0  0  0  0  0  0  0  0  0  0  0  0
    7.2746    0.0000    0.0000 C   0  0  0  0  0  0  0  0  0  0  0  0
    8.4870    0.7000    0.0000 C   0  0  0  0  0  0  0  0  0  0  0  0
    9.6995    0.0000    0.0000 N   0  0  0  0  0  0  0  0  0  0  0  0
    8.4870    2.1000    0.0000 O   0  0  0  0  0  0  0  0  0  0  0  0
   10.9119    0.7000    0.0000 N   0  0  0  0  0  0  0  0  0  0  0  0
  1  2  1  0  0  0  0
  2  3  1  0  0  0  0
  3  4  1  0  0  0  0
  4  5  1  0  0  0  0
  5  6  1  0  0  0  0
  6  7  1  0  0  0  0
  7  8  1  0  0  0  0
  8  9  1  0  0  0  0
  8 10  2  0  0  0  0
  9 11  1  0  0  0  0
M  END
> <Molecule Name>
637

> <CDD Number>
CDD-16114

> <Human_sEH_IC50_uM>
500.0

> <Mouse_sEH_IC50_uM>
330.0

$$$$

SketchEl molfile

 20 20  0  0  0  0  0  0  0  0999 V2000
    0.0000    2.2987    0.0000 C   0  0  0  0  0  0  0  0  0  0  0  0
    1.2124    1.5987    0.0000 C   0  0  0  0  0  0  0  0  0  0  0  0
    2.4249    2.2987    0.0000 C   0  0  0  0  0  0  0  0  0  0  0  0
    2.4249    3.6987    0.0000 C   0  0  0  0  0  0  0  0  0  0  0  0
    1.2124    4.3987    0.0000 C   0  0  0  0  0  0  0  0  0  0  0  0
    0.0000    3.6987    0.0000 C   0  0  0  0  0  0  0  0  0  0  0  0
    3.6373    1.5987    0.0000 N   0  0  0  0  0  0  0  0  0  0  0  0
    4.6273    2.1993    0.0000 C   0  0  0  0  0  0  0  0  0  0  0  0
    5.8397    1.4993    0.0000 N   0  0  0  0  0  0  0  0  0  0  0  0
    4.6273    3.5993    0.0000 O   0  0  0  0  0  0  0  0  0  0  0  0
    6.8296    2.1000    0.0000 C   0  0  0  0  0  0  0  0  0  0  0  0
    8.0421    1.4000    0.0000 C   0  0  0  0  0  0  0  0  0  0  0  0
    9.2545    2.1000    0.0000 C   0  0  0  0  0  0  0  0  0  0  0  0
   10.4669    1.4000    0.0000 C   0  0  0  0  0  0  0  0  0  0  0  0
   11.6794    2.1000    0.0000 C   0  0  0  0  0  0  0  0  0  0  0  0
   12.8918    1.4000    0.0000 C   0  0  0  0  0  0  0  0  0  0  0  0
   14.1043    2.1000    0.0000 C   0  0  0  0  0  0  0  0  0  0  0  0
   15.3167    1.4000    0.0000 C   0  0  0  0  0  0  0  0  0  0  0  0
   16.5291    2.1000    0.0000 O   0  0  0  0  0  0  0  0  0  0  0  0
   15.3167    0.0000    0.0000 O   0  0  0  0  0  0  0  0  0  0  0  0
  1  2  1  0  0  0  0
  2  3  1  0  0  0  0
  3  4  1  0  0  0  0
  4  5  1  0  0  0  0
  5  6  1  0  0  0  0
  6  1  1  0  0  0  0
  3  7  1  0  0  0  0
  7  8  1  0  0  0  0
  8  9  1  0  0  0  0
  8 10  2  0  0  0  0
  9 11  1  0  0  0  0
 11 12  1  0  0  0  0
 12 13  1  0  0  0  0
 13 14  1  0  0  0  0
 14 15  1  0  0  0  0
 15 16  1  0  0  0  0
 16 17  1  0  0  0  0
 17 18  1  0  0  0  0
 18 19  1  0  0  0  0
 18 20  2  0  0  0  0
M  END
> <Molecule Name>
636

> <CDD Number>
CDD-15924

> <Human_sEH_IC50_uM>
0.1

> <Mouse_sEH_IC50_uM>
0.05

$$$$

SketchEl molfile

 16 16  0  0  0  0  0  0  0  0999 V2000
    0.0000    0.8987    0.0000 C   0  0  0  0  0  0  0  0  0  0  0  0
    1.2124    0.1987    0.0000 C   0  0  0  0  0  0  0  0  0  0  0  0
    2.4249    0.8987    0.0000 C   0  0  0  0  0  0  0  0  0  0  0  0
    2.4249    2.2987    0.0000 C   0  0  0  0  0  0  0  0  0  0  0  0
    1.2124    2.9987    0.0000 C   0  0  0  0  0  0  0  0  0  0  0  0
    0.0000    2.2987    0.0000 C   0  0  0  0  0  0  0  0  0  0  0  0
    3.6373    0.1987    0.0000 N   0  0  0  0  0  0  0  0  0  0  0  0
    4.6273    0.7993    0.0000 C   0  0  0  0  0  0  0  0  0  0  0  0
    5.8397    0.0993    0.0000 N   0  0  0  0  0  0  0  0  0  0  0  0
    4.6273    2.1993    0.0000 O   0  0  0  0  0  0  0  0  0  0  0  0
    6.8296    0.7000    0.0000 C   0  0  0  0  0  0  0  0  0  0  0  0
    8.0421    0.0000    0.0000 C   0  0  0  0  0  0  0  0  0  0  0  0
    9.2545    0.7000    0.0000 C   0  0  0  0  0  0  0  0  0  0  0  0
   10.4669    0.0000    0.0000 O   0  0  0  0  0  0  0  0  0  0  0  0
   11.6794    0.7000    0.0000 C   0  0  0  0  0  0  0  0  0  0  0  0
    9.2545    2.1000    0.0000 O   0  0  0  0  0  0  0  0  0  0  0  0
  1  2  1  0  0  0  0
  2  3  1  0  0  0  0
  3  4  1  0  0  0  0
  4  5  1  0  0  0  0
  5  6  1  0  0  0  0
  6  1  1  0  0  0  0
  3  7  1  0  0  0  0
  7  8  1  0  0  0  0
  8  9  1  0  0  0  0
  8 10  2  0  0  0  0
  9 11  1  0  0  0  0
 11 12  1  0  0  0  0
 12 13  1  0  0  0  0
 13 14  1  0  0  0  0
 14 15  1  0  0  0  0
 13 16  2  0  0  0  0
M  END
> <Molecule Name>
635

> <CDD Number>
CDD-15914

> <Human_sEH_IC50_uM>
78.0

> <Mouse_sEH_IC50_uM>
2.5

$$$$

SketchEl molfile

 19 19  0  0  0  0  0  0  0  0999 V2000
    0.0000    0.8987    0.0000 C   0  0  0  0  0  0  0  0  0  0  0  0
    1.2124    0.1987    0.0000 C   0  0  0  0  0  0  0  0  0  0  0  0
    2.4249    0.8987    0.0000 C   0  0  0  0  0  0  0  0  0  0  0  0
    2.4249    2.2987    0.0000 C   0  0  0  0  0  0  0  0  0  0  0  0
    1.2124    2.9987    0.0000 C   0  0  0  0  0  0  0  0  0  0  0  0
    0.0000    2.2987    0.0000 C   0  0  0  0  0  0  0  0  0  0  0  0
    3.6373    0.1987    0.0000 N   0  0  0  0  0  0  0  0  0  0  0  0
    4.6273    0.7993    0.0000 C   0  0  0  0  0  0  0  0  0  0  0  0
    5.8397    0.0993    0.0000 N   0  0  0  0  0  0  0  0  0  0  0  0
    4.6273    2.1993    0.0000 O   0  0  0  0  0  0  0  0  0  0  0  0
    6.8296    0.7000    0.0000 C   0  0  0  0  0  0  0  0  0  0  0  0
    8.0421    0.0000    0.0000 C   0  0  0  0  0  0  0  0  0  0  0  0
    9.2545    0.7000    0.0000 C   0  0  0  0  0  0  0  0  0  0  0  0
   10.4669    0.0000    0.0000 C   0  0  0  0  0  0  0  0  0  0  0  0
   11.6794    0.7000    0.0000 C   0  0  0  0  0  0  0  0  0  0  0  0
   12.8918    0.0000    0.0000 C   0  0  0  0  0  0  0  0  0  0  0  0
   14.1043    0.7000    0.0000 C   0  0  0  0  0  0  0  0  0  0  0  0
   15.3167    0.0000    0.0000 O   0  0  0  0  0  0  0  0  0  0  0  0
   14.1043    2.1000    0.0000 O   0  0  0  0  0  0  0  0  0  0  0  0
  1  2  1  0  0  0  0
  2  3  1  0  0  0  0
  3  4  1  0  0  0  0
  4  5  1  0  0  0  0
  5  6  1  0  0  0  0
  6  1  1  0  0  0  0
  3  7  1  0  0  0  0
  7  8  1  0  0  0  0
  8  9  1  0  0  0  0
  8 10  2  0  0  0  0
  9 11  1  0  0  0  0
 11 12  1  0  0  0  0
 12 13  1  0  0  0  0
 13 14  1  0  0  0  0
 14 15  1  0  0  0  0
 15 16  1  0  0  0  0
 16 17  1  0  0  0  0
 17 18  1  0  0  0  0
 17 19  2  0  0  0  0
M  END
> <Molecule Name>
634

> <CDD Number>
CDD-15923

> <Human_sEH_IC50_uM>
13.4

> <Mouse_sEH_IC50_uM>
0.05

$$$$

SketchEl molfile

 24 24  0  0  0  0  0  0  0  0999 V2000
    0.0000    0.8987    0.0000 C   0  0  0  0  0  0  0  0  0  0  0  0
    1.2124    0.1987    0.0000 C   0  0  0  0  0  0  0  0  0  0  0  0
    2.4249    0.8987    0.0000 C   0  0  0  0  0  0  0  0  0  0  0  0
    2.4249    2.2987    0.0000 C   0  0  0  0  0  0  0  0  0  0  0  0
    1.2124    2.9987    0.0000 C   0  0  0  0  0  0  0  0  0  0  0  0
    0.0000    2.2987    0.0000 C   0  0  0  0  0  0  0  0  0  0  0  0
    3.6373    0.1987    0.0000 N   0  0  0  0  0  0  0  0  0  0  0  0
    4.6273    0.7993    0.0000 C   0  0  0  0  0  0  0  0  0  0  0  0
    5.8397    0.0993    0.0000 N   0  0  0  0  0  0  0  0  0  0  0  0
    4.6273    2.1993    0.0000 O   0  0  0  0  0  0  0  0  0  0  0  0
    6.8296    0.7000    0.0000 C   0  0  0  0  0  0  0  0  0  0  0  0
    8.0421    0.0000    0.0000 C   0  0  0  0  0  0  0  0  0  0  0  0
    9.2545    0.7000    0.0000 C   0  0  0  0  0  0  0  0  0  0  0  0
   10.4669    0.0000    0.0000 C   0  0  0  0  0  0  0  0  0  0  0  0
   11.6794    0.7000    0.0000 C   0  0  0  0  0  0  0  0  0  0  0  0
   12.8918    0.0000    0.0000 C   0  0  0  0  0  0  0  0  0  0  0  0
   14.1043    0.7000    0.0000 C   0  0  0  0  0  0  0  0  0  0  0  0
   15.3167    0.0000    0.0000 C   0  0  0  0  0  0  0  0  0  0  0  0
   16.5291    0.7000    0.0000 C   0  0  0  0  0  0  0  0  0  0  0  0
   17.7416    0.0000    0.0000 C   0  0  0  0  0  0  0  0  0  0  0  0
   18.9540    0.7000    0.0000 C   0  0  0  0  0  0  0  0  0  0  0  0
   20.1664    0.0000    0.0000 O   0  0  0  0  0  0  0  0  0  0  0  0
   18.9540    2.1000    0.0000 O   0  0  0  0  0  0  0  0  0  0  0  0
   21.3789    0.7000    0.0000 C   0  0  0  0  0  0  0  0  0  0  0  0
  1  2  1  0  0  0  0
  2  3  1  0  0  0  0
  3  4  1  0  0  0  0
  4  5  1  0  0  0  0
  5  6  1  0  0  0  0
  6  1  1  0  0  0  0
  3  7  1  0  0  0  0
  7  8  1  0  0  0  0
  8  9  1  0  0  0  0
  8 10  2  0  0  0  0
  9 11  1  0  0  0  0
 11 12  1  0  0  0  0
 12 13  1  0  0  0  0
 13 14  1  0  0  0  0
 14 15  1  0  0  0  0
 15 16  1  0  0  0  0
 16 17  1  0  0  0  0
 17 18  1  0  0  0  0
 18 19  1  0  0  0  0
 19 20  1  0  0  0  0
 20 21  1  0  0  0  0
 21 22  1  0  0  0  0
 21 23  2  0  0  0  0
 22 24  1  0  0  0  0
M  END
> <Molecule Name>
633

> <CDD Number>
CDD-15928

> <Human_sEH_IC50_uM>
0.15

> <Mouse_sEH_IC50_uM>
0.05

$$$$

SketchEl molfile

 16 16  0  0  0  0  0  0  0  0999 V2000
    0.0000    2.2193    0.0000 C   0  0  0  0  0  0  0  0  0  0  0  0
    1.2124    1.5193    0.0000 C   0  0  0  0  0  0  0  0  0  0  0  0
    2.4249    2.2193    0.0000 C   0  0  0  0  0  0  0  0  0  0  0  0
    2.4249    3.6193    0.0000 C   0  0  0  0  0  0  0  0  0  0  0  0
    1.2124    4.3193    0.0000 C   0  0  0  0  0  0  0  0  0  0  0  0
    0.0000    3.6193    0.0000 C   0  0  0  0  0  0  0  0  0  0  0  0
    3.6373    1.5193    0.0000 N   0  0  0  0  0  0  0  0  0  0  0  0
    4.6273    2.1199    0.0000 C   0  0  0  0  0  0  0  0  0  0  0  0
    5.8547    1.4465    0.0000 N   0  0  0  0  0  0  0  0  0  0  0  0
    4.6273    3.5199    0.0000 O   0  0  0  0  0  0  0  0  0  0  0  0
    6.8446    2.0472    0.0000 C   0  0  0  0  0  0  0  0  0  0  0  0
    8.0720    1.3738    0.0000 C   0  0  0  0  0  0  0  0  0  0  0  0
    9.2689    2.1000    0.0000 C   0  0  0  0  0  0  0  0  0  0  0  0
   10.4813    1.4000    0.0000 C   0  0  0  0  0  0  0  0  0  0  0  0
   11.6938    2.1000    0.0000 O   0  0  0  0  0  0  0  0  0  0  0  0
   10.4813    0.0000    0.0000 O   0  0  0  0  0  0  0  0  0  0  0  0
  1  2  1  0  0  0  0
  2  3  1  0  0  0  0
  3  4  1  0  0  0  0
  4  5  1  0  0  0  0
  5  6  1  0  0  0  0
  6  1  1  0  0  0  0
  3  7  1  0  0  0  0
  7  8  1  0  0  0  0
  8  9  1  0  0  0  0
  8 10  2  0  0  0  0
  9 11  1  0  0  0  0
 11 12  1  0  0  0  0
 12 13  1  0  0  0  0
 13 14  1  0  0  0  0
 14 15  1  0  0  0  0
 14 16  2  0  0  0  0
M  END
> <Molecule Name>
632

> <CDD Number>
CDD-15916

> <Human_sEH_IC50_uM>
500.0

> <Mouse_sEH_IC50_uM>
500.0

$$$$

SketchEl molfile

 23 23  0  0  0  0  0  0  0  0999 V2000
    0.0000    0.8987    0.0000 C   0  0  0  0  0  0  0  0  0  0  0  0
    1.2124    0.1987    0.0000 C   0  0  0  0  0  0  0  0  0  0  0  0
    2.4249    0.8987    0.0000 C   0  0  0  0  0  0  0  0  0  0  0  0
    2.4249    2.2987    0.0000 C   0  0  0  0  0  0  0  0  0  0  0  0
    1.2124    2.9987    0.0000 C   0  0  0  0  0  0  0  0  0  0  0  0
    0.0000    2.2987    0.0000 C   0  0  0  0  0  0  0  0  0  0  0  0
    3.6373    0.1987    0.0000 N   0  0  0  0  0  0  0  0  0  0  0  0
    4.6273    0.7993    0.0000 C   0  0  0  0  0  0  0  0  0  0  0  0
    5.8397    0.0993    0.0000 N   0  0  0  0  0  0  0  0  0  0  0  0
    4.6273    2.1993    0.0000 O   0  0  0  0  0  0  0  0  0  0  0  0
    6.8296    0.7000    0.0000 C   0  0  0  0  0  0  0  0  0  0  0  0
    8.0421    0.0000    0.0000 C   0  0  0  0  0  0  0  0  0  0  0  0
    9.2545    0.7000    0.0000 C   0  0  0  0  0  0  0  0  0  0  0  0
   10.4669    0.0000    0.0000 C   0  0  0  0  0  0  0  0  0  0  0  0
   11.6794    0.7000    0.0000 C   0  0  0  0  0  0  0  0  0  0  0  0
   12.8918    0.0000    0.0000 C   0  0  0  0  0  0  0  0  0  0  0  0
   14.1043    0.7000    0.0000 C   0  0  0  0  0  0  0  0  0  0  0  0
   15.3167    0.0000    0.0000 C   0  0  0  0  0  0  0  0  0  0  0  0
   16.5291    0.7000    0.0000 C   0  0  0  0  0  0  0  0  0  0  0  0
   17.7416    0.0000    0.0000 C   0  0  0  0  0  0  0  0  0  0  0  0
   18.9540    0.7000    0.0000 C   0  0  0  0  0  0  0  0  0  0  0  0
   20.1664    0.0000    0.0000 O   0  0  0  0  0  0  0  0  0  0  0  0
   18.9540    2.1000    0.0000 O   0  0  0  0  0  0  0  0  0  0  0  0
  1  2  1  0  0  0  0
  2  3  1  0  0  0  0
  3  4  1  0  0  0  0
  4  5  1  0  0  0  0
  5  6  1  0  0  0  0
  6  1  1  0  0  0  0
  3  7  1  0  0  0  0
  7  8  1  0  0  0  0
  8  9  1  0  0  0  0
  8 10  2  0  0  0  0
  9 11  1  0  0  0  0
 11 12  1  0  0  0  0
 12 13  1  0  0  0  0
 13 14  1  0  0  0  0
 14 15  1  0  0  0  0
 15 16  1  0  0  0  0
 16 17  1  0  0  0  0
 17 18  1  0  0  0  0
 18 19  1  0  0  0  0
 19 20  1  0  0  0  0
 20 21  1  0  0  0  0
 21 22  1  0  0  0  0
 21 23  2  0  0  0  0
M  END
> <Molecule Name>
631

> <CDD Number>
CDD-15927

> <Human_sEH_IC50_uM>
0.12

> <Mouse_sEH_IC50_uM>
0.05

$$$$

SketchEl molfile

 14 14  0  0  0  0  0  0  0  0999 V2000
    0.0000    2.2721    0.0000 C   0  0  0  0  0  0  0  0  0  0  0  0
    1.2124    1.5721    0.0000 C   0  0  0  0  0  0  0  0  0  0  0  0
    2.4249    2.2721    0.0000 C   0  0  0  0  0  0  0  0  0  0  0  0
    2.4249    3.6721    0.0000 C   0  0  0  0  0  0  0  0  0  0  0  0
    1.2124    4.3721    0.0000 C   0  0  0  0  0  0  0  0  0  0  0  0
    0.0000    3.6721    0.0000 C   0  0  0  0  0  0  0  0  0  0  0  0
    3.6373    1.5721    0.0000 N   0  0  0  0  0  0  0  0  0  0  0  0
    4.6273    2.1728    0.0000 C   0  0  0  0  0  0  0  0  0  0  0  0
    5.8397    1.4728    0.0000 N   0  0  0  0  0  0  0  0  0  0  0  0
    4.6273    3.5728    0.0000 O   0  0  0  0  0  0  0  0  0  0  0  0
    6.8296    2.0734    0.0000 C   0  0  0  0  0  0  0  0  0  0  0  0
    8.0570    1.4000    0.0000 C   0  0  0  0  0  0  0  0  0  0  0  0
    9.2695    2.1000    0.0000 N   0  0  0  0  0  0  0  0  0  0  0  0
    8.0570    0.0000    0.0000 O   0  0  0  0  0  0  0  0  0  0  0  0
  1  2  1  0  0  0  0
  2  3  1  0  0  0  0
  3  4  1  0  0  0  0
  4  5  1  0  0  0  0
  5  6  1  0  0  0  0
  6  1  1  0  0  0  0
  3  7  1  0  0  0  0
  7  8  1  0  0  0  0
  8  9  1  0  0  0  0
  8 10  2  0  0  0  0
  9 11  1  0  0  0  0
 11 12  1  0  0  0  0
 12 13  1  0  0  0  0
 12 14  2  0  0  0  0
M  END
> <Molecule Name>
630

> <CDD Number>
CDD-15893

> <Human_sEH_IC50_uM>
7.0

> <Mouse_sEH_IC50_uM>
2.1

$$$$

SketchEl molfile

 20 21  0  0  0  0  0  0  0  0999 V2000
    7.2746    1.9124    0.0000 C   0  0  0  0  0  0  0  0  0  0  0  0
    6.0622    1.2124    0.0000 N   0  0  0  0  0  0  0  0  0  0  0  0
    4.8497    1.9124    0.0000 C   0  0  0  0  0  0  0  0  0  0  0  0
    3.6373    1.2124    0.0000 N   0  0  0  0  0  0  0  0  0  0  0  0
    4.8497    3.3124    0.0000 O   0  0  0  0  0  0  0  0  0  0  0  0
    2.4249    1.9124    0.0000 C   0  0  0  0  0  0  0  0  0  0  0  0
    8.4870    1.2124    0.0000 C   0  0  0  0  0  0  0  0  0  0  0  0
    9.6995    1.9124    0.0000 C   0  0  0  0  0  0  0  0  0  0  0  0
    9.6995    3.3124    0.0000 C   0  0  0  0  0  0  0  0  0  0  0  0
    8.4870    4.0124    0.0000 C   0  0  0  0  0  0  0  0  0  0  0  0
    7.2746    3.3124    0.0000 C   0  0  0  0  0  0  0  0  0  0  0  0
    2.4249    3.3124    0.0000 C   0  0  0  0  0  0  0  0  0  0  0  0
    1.2124    4.0124    0.0000 C   0  0  0  0  0  0  0  0  0  0  0  0
    0.0000    3.3124    0.0000 C   0  0  0  0  0  0  0  0  0  0  0  0
    0.0000    1.9124    0.0000 C   0  0  0  0  0  0  0  0  0  0  0  0
    1.2124    1.2124    0.0000 C   0  0  0  0  0  0  0  0  0  0  0  0
   10.9119    1.2124    0.0000 C   0  0  0  0  0  0  0  0  0  0  0  0
   12.1244    1.9124    0.0000 F   0  0  0  0  0  0  0  0  0  0  0  0
   10.2119    0.0000    0.0000 F   0  0  0  0  0  0  0  0  0  0  0  0
   11.9019    0.2225    0.0000 F   0  0  0  0  0  0  0  0  0  0  0  0
  1  2  1  0  0  0  0
  2  3  1  0  0  0  0
  3  4  1  0  0  0  0
  3  5  2  0  0  0  0
  4  6  1  0  0  0  0
  1  7  2  0  0  0  0
  7  8  1  0  0  0  0
  8  9  2  0  0  0  0
  9 10  1  0  0  0  0
 10 11  2  0  0  0  0
 11  1  1  0  0  0  0
  6 12  1  0  0  0  0
 12 13  1  0  0  0  0
 13 14  1  0  0  0  0
 14 15  1  0  0  0  0
 15 16  1  0  0  0  0
 16  6  1  0  0  0  0
  8 17  1  0  0  0  0
 17 18  1  0  0  0  0
 17 19  1  0  0  0  0
 17 20  1  0  0  0  0
M  END
> <Molecule Name>
629

> <CDD Number>
CDD-15983

> <Human_sEH_IC50_uM>
0.1

> <Mouse_sEH_IC50_uM>
0.05

$$$$

SketchEl molfile

 19 18  0  0  0  0  0  0  0  0999 V2000
   10.9119    0.7861    0.0000 C   0  0  0  0  0  0  0  0  0  0  0  0
   12.1244    0.0861    0.0000 C   0  0  0  0  0  0  0  0  0  0  0  0
   13.3368    0.7861    0.0000 C   0  0  0  0  0  0  0  0  0  0  0  0
   14.5492    0.0861    0.0000 N   0  0  0  0  0  0  0  0  0  0  0  0
   15.7617    0.7861    0.0000 C   0  0  0  0  0  0  0  0  0  0  0  0
   16.9741    0.0861    0.0000 N   0  0  0  0  0  0  0  0  0  0  0  0
   15.7617    2.1861    0.0000 O   0  0  0  0  0  0  0  0  0  0  0  0
    9.6995    0.0861    0.0000 C   0  0  0  0  0  0  0  0  0  0  0  0
    8.4870    0.7861    0.0000 C   0  0  0  0  0  0  0  0  0  0  0  0
    7.2746    0.0861    0.0000 C   0  0  0  0  0  0  0  0  0  0  0  0
    6.0622    0.7861    0.0000 C   0  0  0  0  0  0  0  0  0  0  0  0
    4.8497    0.0861    0.0000 C   0  0  0  0  0  0  0  0  0  0  0  0
    3.6373    0.7861    0.0000 C   0  0  0  0  0  0  0  0  0  0  0  0
    2.4249    0.0861    0.0000 C   0  0  0  0  0  0  0  0  0  0  0  0
    1.2124    0.7861    0.0000 C   0  0  0  0  0  0  0  0  0  0  0  0
    0.0000    0.0861    0.0000 C   0  0  0  0  0  0  0  0  0  0  0  0
   17.9640    0.6868    0.0000 C   0  0  0  0  0  0  0  0  0  0  0  0
   17.9640    2.0868    0.0000 C   0  0  0  0  0  0  0  0  0  0  0  0
   19.1840    0.0000    0.0000 C   0  0  0  0  0  0  0  0  0  0  0  0
  1  2  1  0  0  0  0
  2  3  1  0  0  0  0
  3  4  1  0  0  0  0
  4  5  1  0  0  0  0
  5  6  1  0  0  0  0
  5  7  2  0  0  0  0
  1  8  1  0  0  0  0
  8  9  1  0  0  0  0
  9 10  1  0  0  0  0
 10 11  1  0  0  0  0
 11 12  1  0  0  0  0
 12 13  1  0  0  0  0
 13 14  1  0  0  0  0
 14 15  1  0  0  0  0
 15 16  1  0  0  0  0
  6 17  1  0  0  0  0
 17 18  1  0  0  0  0
 17 19  1  0  0  0  0
M  END
> <Molecule Name>
628

> <CDD Number>
CDD-15836

> <Human_sEH_IC50_uM>
42.0

> <Mouse_sEH_IC50_uM>
3.3

$$$$

SketchEl molfile

 21 21  0  0  0  0  0  0  0  0999 V2000
    0.0000    0.1277    0.0000 C   0  0  0  0  0  0  0  0  0  0  0  0
    1.2139    0.8250    0.0000 C   0  0  0  0  0  0  0  0  0  0  0  0
    2.4249    0.1224    0.0000 C   0  0  0  0  0  0  0  0  0  0  0  0
    3.6388    0.8198    0.0000 C   0  0  0  0  0  0  0  0  0  0  0  0
    4.8497    0.1172    0.0000 C   0  0  0  0  0  0  0  0  0  0  0  0
    6.0637    0.8145    0.0000 C   0  0  0  0  0  0  0  0  0  0  0  0
    7.2746    0.1119    0.0000 C   0  0  0  0  0  0  0  0  0  0  0  0
    8.4885    0.8093    0.0000 C   0  0  0  0  0  0  0  0  0  0  0  0
    9.6995    0.1067    0.0000 C   0  0  0  0  0  0  0  0  0  0  0  0
   10.9134    0.8040    0.0000 C   0  0  0  0  0  0  0  0  0  0  0  0
   12.1243    0.1014    0.0000 C   0  0  0  0  0  0  0  0  0  0  0  0
   13.3383    0.7988    0.0000 C   0  0  0  0  0  0  0  0  0  0  0  0
   14.5492    0.0962    0.0000 N   0  0  0  0  0  0  0  0  0  0  0  0
   15.5435    0.7000    0.0000 C   0  0  0  0  0  0  0  0  0  0  0  0
   16.7559    0.0000    0.0000 N   0  0  0  0  0  0  0  0  0  0  0  0
   15.5435    2.0947    0.0000 O   0  0  0  0  0  0  0  0  0  0  0  0
   17.9729    0.7027    0.0000 C   0  0  0  0  0  0  0  0  0  0  0  0
   18.1358    2.1054    0.0000 C   0  0  0  0  0  0  0  0  0  0  0  0
   19.2633    0.1914    0.0000 C   0  0  0  0  0  0  0  0  0  0  0  0
   19.5222    2.3003    0.0000 C   0  0  0  0  0  0  0  0  0  0  0  0
   20.3665    1.0533    0.0000 C   0  0  0  0  0  0  0  0  0  0  0  0
  1  2  1  0  0  0  0
  2  3  1  0  0  0  0
  3  4  1  0  0  0  0
  4  5  1  0  0  0  0
  5  6  1  0  0  0  0
  6  7  1  0  0  0  0
  7  8  1  0  0  0  0
  8  9  1  0  0  0  0
  9 10  1  0  0  0  0
 10 11  1  0  0  0  0
 11 12  1  0  0  0  0
 12 13  1  0  0  0  0
 13 14  1  0  0  0  0
 14 15  1  0  0  0  0
 14 16  2  0  0  0  0
 15 17  1  0  0  0  0
 17 18  1  0  0  0  0
 17 19  1  0  0  0  0
 18 20  1  0  0  0  0
 19 21  1  0  0  0  0
 20 21  1  0  0  0  0
M  END
> <Molecule Name>
627

> <CDD Number>
CDD-15854

> <Human_sEH_IC50_uM>
0.55

> <Mouse_sEH_IC50_uM>
0.1

$$$$

SketchEl molfile

 14 14  0  0  0  0  0  0  0  0999 V2000
    0.0000    1.8886    0.0000 C   0  0  0  0  0  0  0  0  0  0  0  0
    1.2124    1.1886    0.0000 C   0  0  0  0  0  0  0  0  0  0  0  0
    2.4249    1.8886    0.0000 C   0  0  0  0  0  0  0  0  0  0  0  0
    2.4249    3.2886    0.0000 C   0  0  0  0  0  0  0  0  0  0  0  0
    1.2124    3.9886    0.0000 C   0  0  0  0  0  0  0  0  0  0  0  0
    0.0000    3.2886    0.0000 C   0  0  0  0  0  0  0  0  0  0  0  0
    3.6373    1.1886    0.0000 N   0  0  0  0  0  0  0  0  0  0  0  0
    4.6273    1.7893    0.0000 C   0  0  0  0  0  0  0  0  0  0  0  0
    5.8397    1.0893    0.0000 N   0  0  0  0  0  0  0  0  0  0  0  0
    4.6273    3.1893    0.0000 O   0  0  0  0  0  0  0  0  0  0  0  0
    6.8296    1.6899    0.0000 C   0  0  0  0  0  0  0  0  0  0  0  0
    8.0421    0.9899    0.0000 C   0  0  0  0  0  0  0  0  0  0  0  0
    9.0320    1.9799    0.0000 O   0  0  0  0  0  0  0  0  0  0  0  0
    9.0320    0.0000    0.0000 O   0  0  0  0  0  0  0  0  0  0  0  0
  1  2  1  0  0  0  0
  2  3  1  0  0  0  0
  3  4  1  0  0  0  0
  4  5  1  0  0  0  0
  5  6  1  0  0  0  0
  6  1  1  0  0  0  0
  3  7  1  0  0  0  0
  7  8  1  0  0  0  0
  8  9  1  0  0  0  0
  8 10  2  0  0  0  0
  9 11  1  0  0  0  0
 11 12  1  0  0  0  0
 12 13  2  0  0  0  0
 12 14  1  0  0  0  0
M  END
> <Molecule Name>
625

> <CDD Number>
CDD-15892

> <Human_sEH_IC50_uM>
500.0

> <Mouse_sEH_IC50_uM>
500.0

$$$$

SketchEl molfile

 16 17  0  0  0  0  0  0  0  0999 V2000
    0.0000    4.2000    0.0000 C   0  0  0  0  0  0  0  0  0  0  0  0
    0.0000    2.8000    0.0000 C   0  0  0  0  0  0  0  0  0  0  0  0
    1.2124    2.1000    0.0000 C   0  0  0  0  0  0  0  0  0  0  0  0
    2.4249    2.8000    0.0000 C   0  0  0  0  0  0  0  0  0  0  0  0
    2.4249    4.2000    0.0000 C   0  0  0  0  0  0  0  0  0  0  0  0
    1.2124    4.9000    0.0000 C   0  0  0  0  0  0  0  0  0  0  0  0
    3.6373    2.1000    0.0000 N   0  0  0  0  0  0  0  0  0  0  0  0
    4.8497    2.8000    0.0000 S   0  0  0  0  0  0  0  0  0  0  0  0
    6.0622    2.1000    0.0000 C   0  0  0  0  0  0  0  0  0  0  0  0
    6.0622    0.7000    0.0000 C   0  0  0  0  0  0  0  0  0  0  0  0
    7.2746    0.0000    0.0000 C   0  0  0  0  0  0  0  0  0  0  0  0
    8.4870    0.7000    0.0000 C   0  0  0  0  0  0  0  0  0  0  0  0
    8.4870    2.1000    0.0000 C   0  0  0  0  0  0  0  0  0  0  0  0
    7.2746    2.8000    0.0000 C   0  0  0  0  0  0  0  0  0  0  0  0
    4.8497    4.2000    0.0000 O   0  0  0  0  0  0  0  0  0  0  0  0
    4.8497    1.4000    0.0000 O   0  0  0  0  0  0  0  0  0  0  0  0
  1  2  1  0  0  0  0
  2  3  1  0  0  0  0
  3  4  1  0  0  0  0
  4  5  1  0  0  0  0
  5  6  1  0  0  0  0
  6  1  1  0  0  0  0
  4  7  1  0  0  0  0
  7  8  1  0  0  0  0
  8  9  1  0  0  0  0
  9 10  2  0  0  0  0
 10 11  1  0  0  0  0
 11 12  2  0  0  0  0
 12 13  1  0  0  0  0
 13 14  2  0  0  0  0
 14  9  1  0  0  0  0
  8 15  2  0  0  0  0
  8 16  2  0  0  0  0
M  END
> <Molecule Name>
624

> <CDD Number>
CDD-15659

> <Human_sEH_IC50_uM>
460.0

> <Mouse_sEH_IC50_uM>
500.0

$$$$

SketchEl molfile

 20 19  0  0  0  0  0  0  0  0999 V2000
   10.9119    1.0893    0.0000 C   0  0  0  0  0  0  0  0  0  0  0  0
   12.1244    0.3893    0.0000 C   0  0  0  0  0  0  0  0  0  0  0  0
   13.3368    1.0893    0.0000 C   0  0  0  0  0  0  0  0  0  0  0  0
   14.5492    0.3893    0.0000 N   0  0  0  0  0  0  0  0  0  0  0  0
   15.7617    1.0893    0.0000 C   0  0  0  0  0  0  0  0  0  0  0  0
   16.9741    0.3893    0.0000 N   0  0  0  0  0  0  0  0  0  0  0  0
   15.7617    2.4893    0.0000 O   0  0  0  0  0  0  0  0  0  0  0  0
    9.6995    0.3893    0.0000 C   0  0  0  0  0  0  0  0  0  0  0  0
    8.4870    1.0893    0.0000 C   0  0  0  0  0  0  0  0  0  0  0  0
    7.2746    0.3893    0.0000 C   0  0  0  0  0  0  0  0  0  0  0  0
    6.0622    1.0893    0.0000 C   0  0  0  0  0  0  0  0  0  0  0  0
    4.8497    0.3893    0.0000 C   0  0  0  0  0  0  0  0  0  0  0  0
    3.6373    1.0893    0.0000 C   0  0  0  0  0  0  0  0  0  0  0  0
    2.4249    0.3893    0.0000 C   0  0  0  0  0  0  0  0  0  0  0  0
    1.2124    1.0893    0.0000 C   0  0  0  0  0  0  0  0  0  0  0  0
    0.0000    0.3893    0.0000 C   0  0  0  0  0  0  0  0  0  0  0  0
   17.9640    0.9899    0.0000 C   0  0  0  0  0  0  0  0  0  0  0  0
   19.1765    1.6899    0.0000 C   0  0  0  0  0  0  0  0  0  0  0  0
   18.9540    0.0000    0.0000 C   0  0  0  0  0  0  0  0  0  0  0  0
   17.9640    2.3899    0.0000 C   0  0  0  0  0  0  0  0  0  0  0  0
  1  2  1  0  0  0  0
  2  3  1  0  0  0  0
  3  4  1  0  0  0  0
  4  5  1  0  0  0  0
  5  6  1  0  0  0  0
  5  7  2  0  0  0  0
  1  8  1  0  0  0  0
  8  9  1  0  0  0  0
  9 10  1  0  0  0  0
 10 11  1  0  0  0  0
 11 12  1  0  0  0  0
 12 13  1  0  0  0  0
 13 14  1  0  0  0  0
 14 15  1  0  0  0  0
 15 16  1  0  0  0  0
  6 17  1  0  0  0  0
 17 18  1  0  0  0  0
 17 19  1  0  0  0  0
 17 20  1  0  0  0  0
M  END
> <Molecule Name>
623

> <CDD Number>
CDD-15837

> <Human_sEH_IC50_uM>
500.0

> <Mouse_sEH_IC50_uM>
0.32

$$$$

SketchEl molfile

 17 18  0  0  0  0  0  0  0  0999 V2000
    3.6373    2.1000    0.0000 N   0  0  0  0  0  0  0  0  0  0  0  0
    4.8497    2.8000    0.0000 C   0  0  0  0  0  0  0  0  0  0  0  0
    6.0622    2.1000    0.0000 C   0  0  0  0  0  0  0  0  0  0  0  0
    4.8497    4.2000    0.0000 O   0  0  0  0  0  0  0  0  0  0  0  0
    7.2746    2.8000    0.0000 C   0  0  0  0  0  0  0  0  0  0  0  0
    8.4870    2.1000    0.0000 C   0  0  0  0  0  0  0  0  0  0  0  0
    8.4870    0.7000    0.0000 C   0  0  0  0  0  0  0  0  0  0  0  0
    9.6995    0.0000    0.0000 C   0  0  0  0  0  0  0  0  0  0  0  0
   10.9119    0.7000    0.0000 C   0  0  0  0  0  0  0  0  0  0  0  0
   10.9119    2.1000    0.0000 C   0  0  0  0  0  0  0  0  0  0  0  0
    9.6995    2.8000    0.0000 C   0  0  0  0  0  0  0  0  0  0  0  0
    2.4249    2.8000    0.0000 C   0  0  0  0  0  0  0  0  0  0  0  0
    2.4249    4.2000    0.0000 C   0  0  0  0  0  0  0  0  0  0  0  0
    1.2124    4.9000    0.0000 C   0  0  0  0  0  0  0  0  0  0  0  0
    0.0000    4.2000    0.0000 C   0  0  0  0  0  0  0  0  0  0  0  0
    0.0000    2.8000    0.0000 C   0  0  0  0  0  0  0  0  0  0  0  0
    1.2124    2.1000    0.0000 C   0  0  0  0  0  0  0  0  0  0  0  0
  1  2  1  0  0  0  0
  2  3  1  0  0  0  0
  2  4  2  0  0  0  0
  3  5  2  0  0  0  0
  5  6  1  0  0  0  0
  6  7  2  0  0  0  0
  7  8  1  0  0  0  0
  8  9  2  0  0  0  0
  9 10  1  0  0  0  0
 10 11  2  0  0  0  0
 11  6  1  0  0  0  0
  1 12  1  0  0  0  0
 12 13  1  0  0  0  0
 13 14  1  0  0  0  0
 14 15  1  0  0  0  0
 15 16  1  0  0  0  0
 16 17  1  0  0  0  0
 17 12  1  0  0  0  0
M  END
> <Molecule Name>
622

> <CDD Number>
CDD-16162

> <Human_sEH_IC50_uM>
122.0

> <Mouse_sEH_IC50_uM>
65.0

$$$$

SketchEl molfile

 20 19  0  0  0  0  0  0  0  0999 V2000
    0.0000    1.4000    0.0000 C   0  0  0  0  0  0  0  0  0  0  0  0
    1.2124    0.7000    0.0000 C   0  0  0  0  0  0  0  0  0  0  0  0
    2.4249    1.4000    0.0000 C   0  0  0  0  0  0  0  0  0  0  0  0
    3.6373    0.7000    0.0000 C   0  0  0  0  0  0  0  0  0  0  0  0
    4.8497    1.4000    0.0000 C   0  0  0  0  0  0  0  0  0  0  0  0
    6.0622    0.7000    0.0000 C   0  0  0  0  0  0  0  0  0  0  0  0
    7.2746    1.4000    0.0000 C   0  0  0  0  0  0  0  0  0  0  0  0
    8.4870    0.7000    0.0000 C   0  0  0  0  0  0  0  0  0  0  0  0
    9.6995    1.4000    0.0000 C   0  0  0  0  0  0  0  0  0  0  0  0
   10.9119    0.7000    0.0000 C   0  0  0  0  0  0  0  0  0  0  0  0
   12.1244    1.4000    0.0000 C   0  0  0  0  0  0  0  0  0  0  0  0
   13.3368    0.7000    0.0000 C   0  0  0  0  0  0  0  0  0  0  0  0
   14.5492    1.4000    0.0000 C   0  0  0  0  0  0  0  0  0  0  0  0
   15.7617    0.7000    0.0000 C   0  0  0  0  0  0  0  0  0  0  0  0
   16.9741    1.4000    0.0000 C   0  0  0  0  0  0  0  0  0  0  0  0
   18.1865    0.7000    0.0000 C   0  0  0  0  0  0  0  0  0  0  0  0
   19.3990    1.4000    0.0000 S   0  0  0  0  0  0  0  0  0  0  0  0
   20.6114    0.7000    0.0000 N   0  0  0  0  0  0  0  0  0  0  0  0
   19.3990    2.8000    0.0000 O   0  0  0  0  0  0  0  0  0  0  0  0
   19.3990    0.0000    0.0000 O   0  0  0  0  0  0  0  0  0  0  0  0
  1  2  1  0  0  0  0
  2  3  1  0  0  0  0
  3  4  1  0  0  0  0
  4  5  1  0  0  0  0
  5  6  1  0  0  0  0
  6  7  1  0  0  0  0
  7  8  1  0  0  0  0
  8  9  1  0  0  0  0
  9 10  1  0  0  0  0
 10 11  1  0  0  0  0
 11 12  1  0  0  0  0
 12 13  1  0  0  0  0
 13 14  1  0  0  0  0
 14 15  1  0  0  0  0
 15 16  1  0  0  0  0
 16 17  1  0  0  0  0
 17 18  1  0  0  0  0
 17 19  2  0  0  0  0
 17 20  2  0  0  0  0
M  END
> <Molecule Name>
621

> <CDD Number>
CDD-15658

> <Human_sEH_IC50_uM>
500.0

> <Mouse_sEH_IC50_uM>
500.0

$$$$

SketchEl molfile

 23 22  0  0  0  0  0  0  0  0999 V2000
    0.0000    1.4000    0.0000 C   0  0  0  0  0  0  0  0  0  0  0  0
    1.2124    0.7000    0.0000 C   0  0  0  0  0  0  0  0  0  0  0  0
    2.4249    1.4000    0.0000 C   0  0  0  0  0  0  0  0  0  0  0  0
    3.6373    0.7000    0.0000 C   0  0  0  0  0  0  0  0  0  0  0  0
    4.8497    1.4000    0.0000 C   0  0  0  0  0  0  0  0  0  0  0  0
    6.0622    0.7000    0.0000 C   0  0  0  0  0  0  0  0  0  0  0  0
    7.2746    1.4000    0.0000 C   0  0  0  0  0  0  0  0  0  0  0  0
    8.4870    0.7000    0.0000 C   0  0  0  0  0  0  0  0  0  0  0  0
    9.6995    1.4000    0.0000 C   0  0  0  0  0  0  0  0  0  0  0  0
   10.9119    0.7000    0.0000 C   0  0  0  0  0  0  0  0  0  0  0  0
   12.1244    1.4000    0.0000 C   0  0  0  0  0  0  0  0  0  0  0  0
   13.3368    0.7000    0.0000 C   0  0  0  0  0  0  0  0  0  0  0  0
   14.5492    1.4000    0.0000 C   0  0  0  0  0  0  0  0  0  0  0  0
   15.7617    0.7000    0.0000 C   0  0  0  0  0  0  0  0  0  0  0  0
   16.9741    1.4000    0.0000 C   0  0  0  0  0  0  0  0  0  0  0  0
   18.1865    0.7000    0.0000 C   0  0  0  0  0  0  0  0  0  0  0  0
   19.3990    1.4000    0.0000 S   0  0  0  0  0  0  0  0  0  0  0  0
   20.6114    0.7000    0.0000 N   0  0  0  0  0  0  0  0  0  0  0  0
   21.8238    1.4000    0.0000 C   0  0  0  0  0  0  0  0  0  0  0  0
   23.0363    0.7000    0.0000 C   0  0  0  0  0  0  0  0  0  0  0  0
   24.2487    1.4000    0.0000 C   0  0  0  0  0  0  0  0  0  0  0  0
   19.3990    2.8000    0.0000 O   0  0  0  0  0  0  0  0  0  0  0  0
   19.3990    0.0000    0.0000 O   0  0  0  0  0  0  0  0  0  0  0  0
  1  2  1  0  0  0  0
  2  3  1  0  0  0  0
  3  4  1  0  0  0  0
  4  5  1  0  0  0  0
  5  6  1  0  0  0  0
  6  7  1  0  0  0  0
  7  8  1  0  0  0  0
  8  9  1  0  0  0  0
  9 10  1  0  0  0  0
 10 11  1  0  0  0  0
 11 12  1  0  0  0  0
 12 13  1  0  0  0  0
 13 14  1  0  0  0  0
 14 15  1  0  0  0  0
 15 16  1  0  0  0  0
 16 17  1  0  0  0  0
 17 18  1  0  0  0  0
 18 19  1  0  0  0  0
 19 20  1  0  0  0  0
 20 21  1  0  0  0  0
 17 22  2  0  0  0  0
 17 23  2  0  0  0  0
M  END
> <Molecule Name>
620

> <CDD Number>
CDD-15657

> <Human_sEH_IC50_uM>
500.0

> <Mouse_sEH_IC50_uM>
500.0

$$$$

SketchEl molfile

 21 20  0  0  0  0  0  0  0  0999 V2000
   10.9119    2.1250    0.0000 C   0  0  0  0  0  0  0  0  0  0  0  0
   12.1244    1.4250    0.0000 C   0  0  0  0  0  0  0  0  0  0  0  0
   13.3368    2.1250    0.0000 C   0  0  0  0  0  0  0  0  0  0  0  0
   14.5492    1.4250    0.0000 N   0  0  0  0  0  0  0  0  0  0  0  0
   15.7617    2.1250    0.0000 C   0  0  0  0  0  0  0  0  0  0  0  0
   16.9741    1.4250    0.0000 N   0  0  0  0  0  0  0  0  0  0  0  0
   15.7617    3.5250    0.0000 O   0  0  0  0  0  0  0  0  0  0  0  0
    9.6995    1.4250    0.0000 C   0  0  0  0  0  0  0  0  0  0  0  0
    8.4870    2.1250    0.0000 C   0  0  0  0  0  0  0  0  0  0  0  0
    7.2746    1.4250    0.0000 C   0  0  0  0  0  0  0  0  0  0  0  0
    6.0622    2.1250    0.0000 C   0  0  0  0  0  0  0  0  0  0  0  0
    4.8497    1.4250    0.0000 C   0  0  0  0  0  0  0  0  0  0  0  0
    3.6373    2.1250    0.0000 C   0  0  0  0  0  0  0  0  0  0  0  0
    2.4249    1.4250    0.0000 C   0  0  0  0  0  0  0  0  0  0  0  0
    1.2124    2.1250    0.0000 C   0  0  0  0  0  0  0  0  0  0  0  0
    0.0000    1.4250    0.0000 C   0  0  0  0  0  0  0  0  0  0  0  0
   17.9640    2.0257    0.0000 C   0  0  0  0  0  0  0  0  0  0  0  0
   19.1914    1.3523    0.0000 C   0  0  0  0  0  0  0  0  0  0  0  0
   17.9640    3.4257    0.0000 C   0  0  0  0  0  0  0  0  0  0  0  0
   20.4039    2.0523    0.0000 C   0  0  0  0  0  0  0  0  0  0  0  0
   19.5538    0.0000    0.0000 C   0  0  0  0  0  0  0  0  0  0  0  0
  1  2  1  0  0  0  0
  2  3  1  0  0  0  0
  3  4  1  0  0  0  0
  4  5  1  0  0  0  0
  5  6  1  0  0  0  0
  5  7  2  0  0  0  0
  1  8  1  0  0  0  0
  8  9  1  0  0  0  0
  9 10  1  0  0  0  0
 10 11  1  0  0  0  0
 11 12  1  0  0  0  0
 12 13  1  0  0  0  0
 13 14  1  0  0  0  0
 14 15  1  0  0  0  0
 15 16  1  0  0  0  0
  6 17  1  0  0  0  0
 17 18  1  0  0  0  0
 17 19  1  0  0  0  0
 18 20  1  0  0  0  0
 18 21  1  0  0  0  0
M  END
> <Molecule Name>
619

> <CDD Number>
CDD-15844

> <Human_sEH_IC50_uM>
0.42

> <Mouse_sEH_IC50_uM>
5.1

$$$$

SketchEl molfile

 21 23  0  0  0  0  0  0  0  0999 V2000
    7.2746    2.8000    0.0000 C   0  0  0  0  0  0  0  0  0  0  0  0
    6.0622    2.1000    0.0000 N   0  0  0  0  0  0  0  0  0  0  0  0
    4.8497    2.8000    0.0000 C   0  0  0  0  0  0  0  0  0  0  0  0
    3.6373    2.1000    0.0000 N   0  0  0  0  0  0  0  0  0  0  0  0
    4.8497    4.2000    0.0000 O   0  0  0  0  0  0  0  0  0  0  0  0
    2.4249    2.8000    0.0000 C   0  0  0  0  0  0  0  0  0  0  0  0
    2.4249    4.2000    0.0000 C   0  0  0  0  0  0  0  0  0  0  0  0
    1.2124    4.9000    0.0000 C   0  0  0  0  0  0  0  0  0  0  0  0
    0.0000    4.2000    0.0000 C   0  0  0  0  0  0  0  0  0  0  0  0
    0.0000    2.8000    0.0000 C   0  0  0  0  0  0  0  0  0  0  0  0
    1.2124    2.1000    0.0000 C   0  0  0  0  0  0  0  0  0  0  0  0
    8.4870    2.1000    0.0000 C   0  0  0  0  0  0  0  0  0  0  0  0
    9.6995    2.8000    0.0000 C   0  0  0  0  0  0  0  0  0  0  0  0
    9.6995    4.2000    0.0000 C   0  0  0  0  0  0  0  0  0  0  0  0
    8.4870    4.9000    0.0000 C   0  0  0  0  0  0  0  0  0  0  0  0
    7.2746    4.2000    0.0000 C   0  0  0  0  0  0  0  0  0  0  0  0
    8.4870    0.7000    0.0000 C   0  0  0  0  0  0  0  0  0  0  0  0
    9.6995    0.0000    0.0000 C   0  0  0  0  0  0  0  0  0  0  0  0
   10.9119    0.7000    0.0000 C   0  0  0  0  0  0  0  0  0  0  0  0
   10.9119    2.1000    0.0000 C   0  0  0  0  0  0  0  0  0  0  0  0
   10.9119    4.9000    0.0000 O   0  0  0  0  0  0  0  0  0  0  0  0
  1  2  1  0  0  0  0
  2  3  1  0  0  0  0
  3  4  1  0  0  0  0
  3  5  2  0  0  0  0
  4  6  1  0  0  0  0
  6  7  1  0  0  0  0
  7  8  1  0  0  0  0
  8  9  1  0  0  0  0
  9 10  1  0  0  0  0
 10 11  1  0  0  0  0
 11  6  1  0  0  0  0
  1 12  2  0  0  0  0
 12 13  1  0  0  0  0
 13 14  2  0  0  0  0
 14 15  1  0  0  0  0
 15 16  2  0  0  0  0
 16  1  1  0  0  0  0
 12 17  1  0  0  0  0
 17 18  2  0  0  0  0
 18 19  1  0  0  0  0
 19 20  2  0  0  0  0
 20 13  1  0  0  0  0
 14 21  1  0  0  0  0
M  END
> <Molecule Name>
618

> <CDD Number>
CDD-15976

> <Human_sEH_IC50_uM>
7.6

> <Mouse_sEH_IC50_uM>
0.65

$$$$

SketchEl molfile

 24 23  0  0  0  0  0  0  0  0999 V2000
    0.0000    0.1721    0.0000 C   0  0  0  0  0  0  0  0  0  0  0  0
    1.2124    0.8721    0.0000 C   0  0  0  0  0  0  0  0  0  0  0  0
    2.4249    0.1721    0.0000 C   0  0  0  0  0  0  0  0  0  0  0  0
    3.6373    0.8721    0.0000 C   0  0  0  0  0  0  0  0  0  0  0  0
    4.8497    0.1721    0.0000 C   0  0  0  0  0  0  0  0  0  0  0  0
    6.0622    0.8721    0.0000 C   0  0  0  0  0  0  0  0  0  0  0  0
    7.2746    0.1721    0.0000 C   0  0  0  0  0  0  0  0  0  0  0  0
    8.4870    0.8721    0.0000 C   0  0  0  0  0  0  0  0  0  0  0  0
    9.6995    0.1721    0.0000 C   0  0  0  0  0  0  0  0  0  0  0  0
   10.9119    0.8721    0.0000 C   0  0  0  0  0  0  0  0  0  0  0  0
   12.1244    0.1721    0.0000 C   0  0  0  0  0  0  0  0  0  0  0  0
   13.3368    0.8721    0.0000 C   0  0  0  0  0  0  0  0  0  0  0  0
   14.5492    0.1721    0.0000 N   0  0  0  0  0  0  0  0  0  0  0  0
   15.5392    0.7728    0.0000 C   0  0  0  0  0  0  0  0  0  0  0  0
   16.7516    0.0728    0.0000 N   0  0  0  0  0  0  0  0  0  0  0  0
   15.5392    2.1728    0.0000 O   0  0  0  0  0  0  0  0  0  0  0  0
   17.7416    0.6734    0.0000 C   0  0  0  0  0  0  0  0  0  0  0  0
   18.9690    0.0000    0.0000 C   0  0  0  0  0  0  0  0  0  0  0  0
   20.1659    0.7262    0.0000 C   0  0  0  0  0  0  0  0  0  0  0  0
   21.3933    0.0528    0.0000 C   0  0  0  0  0  0  0  0  0  0  0  0
   17.0416    1.8859    0.0000 C   0  0  0  0  0  0  0  0  0  0  0  0
   18.4416    1.8859    0.0000 C   0  0  0  0  0  0  0  0  0  0  0  0
   19.8035    2.0785    0.0000 C   0  0  0  0  0  0  0  0  0  0  0  0
   21.1558    1.7162    0.0000 C   0  0  0  0  0  0  0  0  0  0  0  0
  1  2  1  0  0  0  0
  2  3  1  0  0  0  0
  3  4  1  0  0  0  0
  4  5  1  0  0  0  0
  5  6  1  0  0  0  0
  6  7  1  0  0  0  0
  7  8  1  0  0  0  0
  8  9  1  0  0  0  0
  9 10  1  0  0  0  0
 10 11  1  0  0  0  0
 11 12  1  0  0  0  0
 12 13  1  0  0  0  0
 13 14  1  0  0  0  0
 14 15  1  0  0  0  0
 14 16  2  0  0  0  0
 15 17  1  0  0  0  0
 17 18  1  0  0  0  0
 18 19  1  0  0  0  0
 19 20  1  0  0  0  0
 17 21  1  0  0  0  0
 17 22  1  0  0  0  0
 19 23  1  0  0  0  0
 19 24  1  0  0  0  0
M  END
> <Molecule Name>
617

> <CDD Number>
CDD-15851

> <Human_sEH_IC50_uM>
230.0

> <Mouse_sEH_IC50_uM>
0.13

$$$$

SketchEl molfile

 20 21  0  0  0  0  0  0  0  0999 V2000
    7.2746    0.7000    0.0000 C   0  0  0  0  0  0  0  0  0  0  0  0
    6.0622    0.0000    0.0000 N   0  0  0  0  0  0  0  0  0  0  0  0
    4.8497    0.7000    0.0000 C   0  0  0  0  0  0  0  0  0  0  0  0
    3.6373    0.0000    0.0000 N   0  0  0  0  0  0  0  0  0  0  0  0
    4.8497    2.1000    0.0000 O   0  0  0  0  0  0  0  0  0  0  0  0
    2.4249    0.7000    0.0000 C   0  0  0  0  0  0  0  0  0  0  0  0
    8.4870    0.0000    0.0000 C   0  0  0  0  0  0  0  0  0  0  0  0
    9.6995    0.7000    0.0000 C   0  0  0  0  0  0  0  0  0  0  0  0
    9.6995    2.1000    0.0000 C   0  0  0  0  0  0  0  0  0  0  0  0
    8.4870    2.8000    0.0000 C   0  0  0  0  0  0  0  0  0  0  0  0
    7.2746    2.1000    0.0000 C   0  0  0  0  0  0  0  0  0  0  0  0
    2.4249    2.1000    0.0000 C   0  0  0  0  0  0  0  0  0  0  0  0
    1.2124    2.8000    0.0000 C   0  0  0  0  0  0  0  0  0  0  0  0
    0.0000    2.1000    0.0000 C   0  0  0  0  0  0  0  0  0  0  0  0
    0.0000    0.7000    0.0000 C   0  0  0  0  0  0  0  0  0  0  0  0
    1.2124    0.0000    0.0000 C   0  0  0  0  0  0  0  0  0  0  0  0
   10.9119    2.8000    0.0000 C   0  0  0  0  0  0  0  0  0  0  0  0
   10.9119    4.2000    0.0000 F   0  0  0  0  0  0  0  0  0  0  0  0
   11.9019    1.8101    0.0000 F   0  0  0  0  0  0  0  0  0  0  0  0
   12.1244    3.5000    0.0000 F   0  0  0  0  0  0  0  0  0  0  0  0
  1  2  1  0  0  0  0
  2  3  1  0  0  0  0
  3  4  1  0  0  0  0
  3  5  2  0  0  0  0
  4  6  1  0  0  0  0
  1  7  2  0  0  0  0
  7  8  1  0  0  0  0
  8  9  2  0  0  0  0
  9 10  1  0  0  0  0
 10 11  2  0  0  0  0
 11  1  1  0  0  0  0
  6 12  1  0  0  0  0
 12 13  1  0  0  0  0
 13 14  1  0  0  0  0
 14 15  1  0  0  0  0
 15 16  1  0  0  0  0
 16  6  1  0  0  0  0
  9 17  1  0  0  0  0
 17 18  1  0  0  0  0
 17 19  1  0  0  0  0
 17 20  1  0  0  0  0
M  END
> <Molecule Name>
616

> <CDD Number>
CDD-15982

> <Human_sEH_IC50_uM>
0.1

> <Mouse_sEH_IC50_uM>
0.05

$$$$

SketchEl molfile

 22 21  0  0  0  0  0  0  0  0999 V2000
    0.0000    0.1721    0.0000 C   0  0  0  0  0  0  0  0  0  0  0  0
    1.2124    0.8721    0.0000 C   0  0  0  0  0  0  0  0  0  0  0  0
    2.4249    0.1721    0.0000 C   0  0  0  0  0  0  0  0  0  0  0  0
    3.6373    0.8721    0.0000 C   0  0  0  0  0  0  0  0  0  0  0  0
    4.8497    0.1721    0.0000 C   0  0  0  0  0  0  0  0  0  0  0  0
    6.0622    0.8721    0.0000 C   0  0  0  0  0  0  0  0  0  0  0  0
    7.2746    0.1721    0.0000 C   0  0  0  0  0  0  0  0  0  0  0  0
    8.4870    0.8721    0.0000 C   0  0  0  0  0  0  0  0  0  0  0  0
    9.6995    0.1721    0.0000 C   0  0  0  0  0  0  0  0  0  0  0  0
   10.9119    0.8721    0.0000 C   0  0  0  0  0  0  0  0  0  0  0  0
   12.1244    0.1721    0.0000 C   0  0  0  0  0  0  0  0  0  0  0  0
   13.3368    0.8721    0.0000 C   0  0  0  0  0  0  0  0  0  0  0  0
   14.5492    0.1721    0.0000 N   0  0  0  0  0  0  0  0  0  0  0  0
   15.5392    0.7728    0.0000 C   0  0  0  0  0  0  0  0  0  0  0  0
   16.7516    0.0728    0.0000 N   0  0  0  0  0  0  0  0  0  0  0  0
   15.5392    2.1728    0.0000 O   0  0  0  0  0  0  0  0  0  0  0  0
   17.7416    0.6734    0.0000 C   0  0  0  0  0  0  0  0  0  0  0  0
   18.9690    0.0000    0.0000 C   0  0  0  0  0  0  0  0  0  0  0  0
   20.1659    0.7262    0.0000 C   0  0  0  0  0  0  0  0  0  0  0  0
   21.3933    0.0528    0.0000 C   0  0  0  0  0  0  0  0  0  0  0  0
   19.1759    1.7162    0.0000 C   0  0  0  0  0  0  0  0  0  0  0  0
   21.1558    1.7162    0.0000 C   0  0  0  0  0  0  0  0  0  0  0  0
  1  2  1  0  0  0  0
  2  3  1  0  0  0  0
  3  4  1  0  0  0  0
  4  5  1  0  0  0  0
  5  6  1  0  0  0  0
  6  7  1  0  0  0  0
  7  8  1  0  0  0  0
  8  9  1  0  0  0  0
  9 10  1  0  0  0  0
 10 11  1  0  0  0  0
 11 12  1  0  0  0  0
 12 13  1  0  0  0  0
 13 14  1  0  0  0  0
 14 15  1  0  0  0  0
 14 16  2  0  0  0  0
 15 17  1  0  0  0  0
 17 18  1  0  0  0  0
 18 19  1  0  0  0  0
 19 20  1  0  0  0  0
 19 21  1  0  0  0  0
 19 22  1  0  0  0  0
M  END
> <Molecule Name>
615

> <CDD Number>
CDD-15850

> <Human_sEH_IC50_uM>
0.11

> <Mouse_sEH_IC50_uM>
0.05

$$$$

SketchEl molfile

 17 16  0  0  0  0  0  0  0  0999 V2000
    2.4249    0.0000    0.0000 C   0  0  0  0  0  0  0  0  0  0  0  0
    3.6373    0.7000    0.0000 C   0  0  0  0  0  0  0  0  0  0  0  0
    4.8497    0.0000    0.0000 C   0  0  0  0  0  0  0  0  0  0  0  0
    6.0622    0.7000    0.0000 C   0  0  0  0  0  0  0  0  0  0  0  0
    7.2746    0.0000    0.0000 C   0  0  0  0  0  0  0  0  0  0  0  0
    8.4870    0.7000    0.0000 C   0  0  0  0  0  0  0  0  0  0  0  0
    9.6995    0.0000    0.0000 C   0  0  0  0  0  0  0  0  0  0  0  0
   10.9119    0.7000    0.0000 C   0  0  0  0  0  0  0  0  0  0  0  0
   12.1244    0.0000    0.0000 C   0  0  0  0  0  0  0  0  0  0  0  0
   13.3368    0.7000    0.0000 C   0  0  0  0  0  0  0  0  0  0  0  0
   14.5492    0.0000    0.0000 N   0  0  0  0  0  0  0  0  0  0  0  0
   15.7617    0.7000    0.0000 C   0  0  0  0  0  0  0  0  0  0  0  0
   16.9741    0.0000    0.0000 C   0  0  0  0  0  0  0  0  0  0  0  0
   15.7617    2.1000    0.0000 O   0  0  0  0  0  0  0  0  0  0  0  0
   18.1865    0.7000    0.0000 Cl  0  0  0  0  0  0  0  0  0  0  0  0
    1.2124    0.7000    0.0000 C   0  0  0  0  0  0  0  0  0  0  0  0
    0.0000    0.0000    0.0000 C   0  0  0  0  0  0  0  0  0  0  0  0
  1  2  1  0  0  0  0
  2  3  1  0  0  0  0
  3  4  1  0  0  0  0
  4  5  1  0  0  0  0
  5  6  1  0  0  0  0
  6  7  1  0  0  0  0
  7  8  1  0  0  0  0
  8  9  1  0  0  0  0
  9 10  1  0  0  0  0
 10 11  1  0  0  0  0
 11 12  1  0  0  0  0
 12 13  1  0  0  0  0
 12 14  2  0  0  0  0
 13 15  1  0  0  0  0
  1 16  1  0  0  0  0
 16 17  1  0  0  0  0
M  END
> <Molecule Name>
614

> <CDD Number>
CDD-16128

> <Human_sEH_IC50_uM>
500.0

> <Mouse_sEH_IC50_uM>
500.0

$$$$

SketchEl molfile

 21 23  0  0  0  0  0  0  0  0999 V2000
    7.2746    2.8000    0.0000 C   0  0  0  0  0  0  0  0  0  0  0  0
    6.0622    2.1000    0.0000 N   0  0  0  0  0  0  0  0  0  0  0  0
    4.8497    2.8000    0.0000 C   0  0  0  0  0  0  0  0  0  0  0  0
    3.6373    2.1000    0.0000 N   0  0  0  0  0  0  0  0  0  0  0  0
    4.8497    4.2000    0.0000 O   0  0  0  0  0  0  0  0  0  0  0  0
    2.4249    2.8000    0.0000 C   0  0  0  0  0  0  0  0  0  0  0  0
    2.4249    4.2000    0.0000 C   0  0  0  0  0  0  0  0  0  0  0  0
    1.2124    4.9000    0.0000 C   0  0  0  0  0  0  0  0  0  0  0  0
    0.0000    4.2000    0.0000 C   0  0  0  0  0  0  0  0  0  0  0  0
    0.0000    2.8000    0.0000 C   0  0  0  0  0  0  0  0  0  0  0  0
    1.2124    2.1000    0.0000 C   0  0  0  0  0  0  0  0  0  0  0  0
    8.4870    2.1000    0.0000 C   0  0  0  0  0  0  0  0  0  0  0  0
    9.6995    2.8000    0.0000 C   0  0  0  0  0  0  0  0  0  0  0  0
    9.6995    4.2000    0.0000 C   0  0  0  0  0  0  0  0  0  0  0  0
    8.4870    4.9000    0.0000 C   0  0  0  0  0  0  0  0  0  0  0  0
    7.2746    4.2000    0.0000 C   0  0  0  0  0  0  0  0  0  0  0  0
    8.4870    0.7000    0.0000 C   0  0  0  0  0  0  0  0  0  0  0  0
    9.6995    0.0000    0.0000 C   0  0  0  0  0  0  0  0  0  0  0  0
   10.9119    0.7000    0.0000 C   0  0  0  0  0  0  0  0  0  0  0  0
   10.9119    2.1000    0.0000 C   0  0  0  0  0  0  0  0  0  0  0  0
    6.0622    4.9000    0.0000 O   0  0  0  0  0  0  0  0  0  0  0  0
  1  2  1  0  0  0  0
  2  3  1  0  0  0  0
  3  4  1  0  0  0  0
  3  5  2  0  0  0  0
  4  6  1  0  0  0  0
  6  7  1  0  0  0  0
  7  8  1  0  0  0  0
  8  9  1  0  0  0  0
  9 10  1  0  0  0  0
 10 11  1  0  0  0  0
 11  6  1  0  0  0  0
  1 12  2  0  0  0  0
 12 13  1  0  0  0  0
 13 14  2  0  0  0  0
 14 15  1  0  0  0  0
 15 16  2  0  0  0  0
 16  1  1  0  0  0  0
 12 17  1  0  0  0  0
 17 18  2  0  0  0  0
 18 19  1  0  0  0  0
 19 20  2  0  0  0  0
 20 13  1  0  0  0  0
 16 21  1  0  0  0  0
M  END
> <Molecule Name>
613

> <CDD Number>
CDD-15975

> <Human_sEH_IC50_uM>
0.1

> <Mouse_sEH_IC50_uM>
0.05

$$$$

SketchEl molfile

 21 23  0  0  0  0  0  0  0  0999 V2000
    0.0000    2.1993    0.0000 C   0  0  0  0  0  0  0  0  0  0  0  0
    0.0000    0.7993    0.0000 C   0  0  0  0  0  0  0  0  0  0  0  0
    1.2124    0.0993    0.0000 C   0  0  0  0  0  0  0  0  0  0  0  0
    2.4249    0.7993    0.0000 C   0  0  0  0  0  0  0  0  0  0  0  0
    2.4249    2.1993    0.0000 C   0  0  0  0  0  0  0  0  0  0  0  0
    1.2124    2.8993    0.0000 C   0  0  0  0  0  0  0  0  0  0  0  0
    3.6373    0.0993    0.0000 N   0  0  0  0  0  0  0  0  0  0  0  0
    4.8497    0.7993    0.0000 C   0  0  0  0  0  0  0  0  0  0  0  0
    6.0622    0.0993    0.0000 N   0  0  0  0  0  0  0  0  0  0  0  0
    4.8497    2.1993    0.0000 O   0  0  0  0  0  0  0  0  0  0  0  0
    7.0521    0.7000    0.0000 C   0  0  0  0  0  0  0  0  0  0  0  0
    8.2646    0.0000    0.0000 C   0  0  0  0  0  0  0  0  0  0  0  0
    9.4770    0.7000    0.0000 C   0  0  0  0  0  0  0  0  0  0  0  0
    9.4770    2.1000    0.0000 C   0  0  0  0  0  0  0  0  0  0  0  0
    8.2646    2.8000    0.0000 C   0  0  0  0  0  0  0  0  0  0  0  0
    7.0521    2.1000    0.0000 C   0  0  0  0  0  0  0  0  0  0  0  0
    5.8397    2.8000    0.0000 O   0  0  0  0  0  0  0  0  0  0  0  0
   10.6894    0.0000    0.0000 C   0  0  0  0  0  0  0  0  0  0  0  0
   11.9019    0.7000    0.0000 C   0  0  0  0  0  0  0  0  0  0  0  0
   11.9019    2.1000    0.0000 C   0  0  0  0  0  0  0  0  0  0  0  0
   10.6894    2.8000    0.0000 C   0  0  0  0  0  0  0  0  0  0  0  0
  1  2  1  0  0  0  0
  2  3  1  0  0  0  0
  3  4  1  0  0  0  0
  4  5  1  0  0  0  0
  5  6  1  0  0  0  0
  6  1  1  0  0  0  0
  4  7  1  0  0  0  0
  7  8  1  0  0  0  0
  8  9  1  0  0  0  0
  8 10  2  0  0  0  0
  9 11  1  0  0  0  0
 11 12  2  0  0  0  0
 12 13  1  0  0  0  0
 13 14  2  0  0  0  0
 14 15  1  0  0  0  0
 15 16  2  0  0  0  0
 16 11  1  0  0  0  0
 16 17  1  0  0  0  0
 13 18  1  0  0  0  0
 18 19  2  0  0  0  0
 19 20  1  0  0  0  0
 20 21  2  0  0  0  0
 21 14  1  0  0  0  0
M  END
> <Molecule Name>
612

> <CDD Number>
CDD-15974

> <Human_sEH_IC50_uM>
0.1

> <Mouse_sEH_IC50_uM>
0.05

$$$$

SketchEl molfile

 19 20  0  0  0  0  0  0  0  0999 V2000
    9.6995    2.8000    0.0000 C   0  0  0  0  0  0  0  0  0  0  0  0
    8.4870    2.1000    0.0000 N   0  0  0  0  0  0  0  0  0  0  0  0
    7.2746    2.8000    0.0000 C   0  0  0  0  0  0  0  0  0  0  0  0
    6.0622    2.1000    0.0000 N   0  0  0  0  0  0  0  0  0  0  0  0
    7.2746    4.2000    0.0000 O   0  0  0  0  0  0  0  0  0  0  0  0
    4.8497    2.8000    0.0000 C   0  0  0  0  0  0  0  0  0  0  0  0
    3.6373    2.1000    0.0000 C   0  0  0  0  0  0  0  0  0  0  0  0
    2.4249    2.8000    0.0000 C   0  0  0  0  0  0  0  0  0  0  0  0
    2.4249    4.2000    0.0000 C   0  0  0  0  0  0  0  0  0  0  0  0
    1.2124    4.9000    0.0000 C   0  0  0  0  0  0  0  0  0  0  0  0
    0.0000    4.2000    0.0000 C   0  0  0  0  0  0  0  0  0  0  0  0
    0.0000    2.8000    0.0000 C   0  0  0  0  0  0  0  0  0  0  0  0
    1.2124    2.1000    0.0000 C   0  0  0  0  0  0  0  0  0  0  0  0
   10.9119    2.1000    0.0000 C   0  0  0  0  0  0  0  0  0  0  0  0
   10.9119    0.7000    0.0000 C   0  0  0  0  0  0  0  0  0  0  0  0
   12.1244    0.0000    0.0000 C   0  0  0  0  0  0  0  0  0  0  0  0
   13.3368    0.7000    0.0000 C   0  0  0  0  0  0  0  0  0  0  0  0
   13.3368    2.1000    0.0000 C   0  0  0  0  0  0  0  0  0  0  0  0
   12.1244    2.8000    0.0000 C   0  0  0  0  0  0  0  0  0  0  0  0
  1  2  1  0  0  0  0
  2  3  1  0  0  0  0
  3  4  1  0  0  0  0
  3  5  2  0  0  0  0
  4  6  1  0  0  0  0
  6  7  1  0  0  0  0
  7  8  1  0  0  0  0
  8  9  1  0  0  0  0
  9 10  1  0  0  0  0
 10 11  1  0  0  0  0
 11 12  1  0  0  0  0
 12 13  1  0  0  0  0
 13  8  1  0  0  0  0
  1 14  1  0  0  0  0
 14 15  2  0  0  0  0
 15 16  1  0  0  0  0
 16 17  2  0  0  0  0
 17 18  1  0  0  0  0
 18 19  2  0  0  0  0
 19 14  1  0  0  0  0
M  END
> <Molecule Name>
611

> <CDD Number>
CDD-15967

> <Human_sEH_IC50_uM>
0.69

> <Mouse_sEH_IC50_uM>
0.05

$$$$

SketchEl molfile

 20 21  0  0  0  0  0  0  0  0999 V2000
    0.0000    0.7000    0.0000 C   0  0  0  0  0  0  0  0  0  0  0  0
    1.2124    0.0000    0.0000 C   0  0  0  0  0  0  0  0  0  0  0  0
    2.4249    0.7000    0.0000 C   0  0  0  0  0  0  0  0  0  0  0  0
    2.4249    2.1000    0.0000 C   0  0  0  0  0  0  0  0  0  0  0  0
    1.2124    2.8000    0.0000 C   0  0  0  0  0  0  0  0  0  0  0  0
    0.0000    2.1000    0.0000 C   0  0  0  0  0  0  0  0  0  0  0  0
    3.6373    0.0000    0.0000 N   0  0  0  0  0  0  0  0  0  0  0  0
    4.8497    0.7000    0.0000 C   0  0  0  0  0  0  0  0  0  0  0  0
    6.0622    0.0000    0.0000 O   0  0  0  0  0  0  0  0  0  0  0  0
    4.8497    2.1000    0.0000 O   0  0  0  0  0  0  0  0  0  0  0  0
    7.2746    0.7000    0.0000 C   0  0  0  0  0  0  0  0  0  0  0  0
    8.4870    0.0000    0.0000 C   0  0  0  0  0  0  0  0  0  0  0  0
    9.6995    0.7000    0.0000 C   0  0  0  0  0  0  0  0  0  0  0  0
    9.6995    2.1000    0.0000 C   0  0  0  0  0  0  0  0  0  0  0  0
    8.4870    2.8000    0.0000 C   0  0  0  0  0  0  0  0  0  0  0  0
    7.2746    2.1000    0.0000 C   0  0  0  0  0  0  0  0  0  0  0  0
   10.9119    2.8000    0.0000 N   0  0  0  0  0  0  0  0  0  0  0  0
   12.1244    2.1000    0.0000 C   0  0  0  0  0  0  0  0  0  0  0  0
   13.3368    2.8000    0.0000 C   0  0  0  0  0  0  0  0  0  0  0  0
   12.1244    0.7000    0.0000 O   0  0  0  0  0  0  0  0  0  0  0  0
  1  2  1  0  0  0  0
  2  3  1  0  0  0  0
  3  4  1  0  0  0  0
  4  5  1  0  0  0  0
  5  6  1  0  0  0  0
  6  1  1  0  0  0  0
  3  7  1  0  0  0  0
  7  8  1  0  0  0  0
  8  9  1  0  0  0  0
  8 10  2  0  0  0  0
  9 11  1  0  0  0  0
 11 12  2  0  0  0  0
 12 13  1  0  0  0  0
 13 14  2  0  0  0  0
 14 15  1  0  0  0  0
 15 16  2  0  0  0  0
 16 11  1  0  0  0  0
 14 17  1  0  0  0  0
 17 18  1  0  0  0  0
 18 19  1  0  0  0  0
 18 20  2  0  0  0  0
M  END
> <Molecule Name>
610

> <CDD Number>
CDD-16084

> <Human_sEH_IC50_uM>
0.1

> <Mouse_sEH_IC50_uM>
0.06

$$$$

SketchEl molfile

 18 19  0  0  0  0  0  0  0  0999 V2000
    7.2746    0.7000    0.0000 C   0  0  0  0  0  0  0  0  0  0  0  0
    6.0622    0.0000    0.0000 N   0  0  0  0  0  0  0  0  0  0  0  0
    4.8497    0.7000    0.0000 C   0  0  0  0  0  0  0  0  0  0  0  0
    3.6373    0.0000    0.0000 N   0  0  0  0  0  0  0  0  0  0  0  0
    4.8497    2.1000    0.0000 O   0  0  0  0  0  0  0  0  0  0  0  0
    2.4249    0.7000    0.0000 C   0  0  0  0  0  0  0  0  0  0  0  0
    2.4249    2.1000    0.0000 C   0  0  0  0  0  0  0  0  0  0  0  0
    1.2124    2.8000    0.0000 C   0  0  0  0  0  0  0  0  0  0  0  0
    0.0000    2.1000    0.0000 C   0  0  0  0  0  0  0  0  0  0  0  0
    0.0000    0.7000    0.0000 C   0  0  0  0  0  0  0  0  0  0  0  0
    1.2124    0.0000    0.0000 C   0  0  0  0  0  0  0  0  0  0  0  0
    8.4870    0.0000    0.0000 C   0  0  0  0  0  0  0  0  0  0  0  0
    9.6995    0.7000    0.0000 C   0  0  0  0  0  0  0  0  0  0  0  0
    9.6995    2.1000    0.0000 C   0  0  0  0  0  0  0  0  0  0  0  0
    8.4870    2.8000    0.0000 C   0  0  0  0  0  0  0  0  0  0  0  0
    7.2746    2.1000    0.0000 C   0  0  0  0  0  0  0  0  0  0  0  0
    8.4870    4.2000    0.0000 Cl  0  0  0  0  0  0  0  0  0  0  0  0
    1.2124    4.2000    0.0000 Cl  0  0  0  0  0  0  0  0  0  0  0  0
  1  2  1  0  0  0  0
  2  3  1  0  0  0  0
  3  4  1  0  0  0  0
  3  5  2  0  0  0  0
  4  6  1  0  0  0  0
  6  7  2  0  0  0  0
  7  8  1  0  0  0  0
  8  9  2  0  0  0  0
  9 10  1  0  0  0  0
 10 11  2  0  0  0  0
 11  6  1  0  0  0  0
  1 12  2  0  0  0  0
 12 13  1  0  0  0  0
 13 14  2  0  0  0  0
 14 15  1  0  0  0  0
 15 16  2  0  0  0  0
 16  1  1  0  0  0  0
 15 17  1  0  0  0  0
  8 18  1  0  0  0  0
M  END
> <Molecule Name>
591

> <CDD Number>
CDD-15692

> <Human_sEH_IC50_uM>
100.0

> <Mouse_sEH_IC50_uM>
100.0

$$$$

SketchEl molfile

 21 20  0  0  0  0  0  0  0  0999 V2000
   10.9119    1.0893    0.0000 C   0  0  0  0  0  0  0  0  0  0  0  0
   12.1244    0.3893    0.0000 C   0  0  0  0  0  0  0  0  0  0  0  0
   13.3368    1.0893    0.0000 C   0  0  0  0  0  0  0  0  0  0  0  0
   14.5492    0.3893    0.0000 N   0  0  0  0  0  0  0  0  0  0  0  0
   15.7617    1.0893    0.0000 C   0  0  0  0  0  0  0  0  0  0  0  0
   16.9741    0.3893    0.0000 N   0  0  0  0  0  0  0  0  0  0  0  0
   15.7617    2.4893    0.0000 O   0  0  0  0  0  0  0  0  0  0  0  0
    9.6995    0.3893    0.0000 C   0  0  0  0  0  0  0  0  0  0  0  0
    8.4870    1.0893    0.0000 C   0  0  0  0  0  0  0  0  0  0  0  0
    7.2746    0.3893    0.0000 C   0  0  0  0  0  0  0  0  0  0  0  0
    6.0622    1.0893    0.0000 C   0  0  0  0  0  0  0  0  0  0  0  0
    4.8497    0.3893    0.0000 C   0  0  0  0  0  0  0  0  0  0  0  0
    3.6373    1.0893    0.0000 C   0  0  0  0  0  0  0  0  0  0  0  0
    2.4249    0.3893    0.0000 C   0  0  0  0  0  0  0  0  0  0  0  0
    1.2124    1.0893    0.0000 C   0  0  0  0  0  0  0  0  0  0  0  0
    0.0000    0.3893    0.0000 C   0  0  0  0  0  0  0  0  0  0  0  0
   17.9640    0.9899    0.0000 C   0  0  0  0  0  0  0  0  0  0  0  0
   17.2640    2.2024    0.0000 C   0  0  0  0  0  0  0  0  0  0  0  0
   19.1765    1.6899    0.0000 C   0  0  0  0  0  0  0  0  0  0  0  0
   18.9540    0.0000    0.0000 C   0  0  0  0  0  0  0  0  0  0  0  0
   20.1664    0.7000    0.0000 C   0  0  0  0  0  0  0  0  0  0  0  0
  1  2  1  0  0  0  0
  2  3  1  0  0  0  0
  3  4  1  0  0  0  0
  4  5  1  0  0  0  0
  5  6  1  0  0  0  0
  5  7  2  0  0  0  0
  1  8  1  0  0  0  0
  8  9  1  0  0  0  0
  9 10  1  0  0  0  0
 10 11  1  0  0  0  0
 11 12  1  0  0  0  0
 12 13  1  0  0  0  0
 13 14  1  0  0  0  0
 14 15  1  0  0  0  0
 15 16  1  0  0  0  0
  6 17  1  0  0  0  0
 17 18  1  0  0  0  0
 17 19  1  0  0  0  0
 17 20  1  0  0  0  0
 20 21  1  0  0  0  0
M  END
> <Molecule Name>
562

> <CDD Number>
CDD-15845

> <Human_sEH_IC50_uM>
15.0

> <Mouse_sEH_IC50_uM>
0.5

$$$$

SketchEl molfile

 21 20  0  0  0  0  0  0  0  0999 V2000
    0.0000    0.0000    0.0000 C   0  0  0  0  0  0  0  0  0  0  0  0
    1.2124    0.7000    0.0000 C   0  0  0  0  0  0  0  0  0  0  0  0
    2.4249    0.0000    0.0000 C   0  0  0  0  0  0  0  0  0  0  0  0
    3.6373    0.7000    0.0000 C   0  0  0  0  0  0  0  0  0  0  0  0
    4.8497    0.0000    0.0000 C   0  0  0  0  0  0  0  0  0  0  0  0
    6.0622    0.7000    0.0000 C   0  0  0  0  0  0  0  0  0  0  0  0
    7.2746    0.0000    0.0000 C   0  0  0  0  0  0  0  0  0  0  0  0
    8.4870    0.7000    0.0000 C   0  0  0  0  0  0  0  0  0  0  0  0
    9.6995    0.0000    0.0000 C   0  0  0  0  0  0  0  0  0  0  0  0
   10.9119    0.7000    0.0000 C   0  0  0  0  0  0  0  0  0  0  0  0
   12.1244    0.0000    0.0000 C   0  0  0  0  0  0  0  0  0  0  0  0
   13.3368    0.7000    0.0000 C   0  0  0  0  0  0  0  0  0  0  0  0
   14.5492    0.0000    0.0000 C   0  0  0  0  0  0  0  0  0  0  0  0
   15.7617    0.7000    0.0000 C   0  0  0  0  0  0  0  0  0  0  0  0
   16.9741    0.0000    0.0000 C   0  0  0  0  0  0  0  0  0  0  0  0
   18.1865    0.7000    0.0000 C   0  0  0  0  0  0  0  0  0  0  0  0
   19.3990    0.0000    0.0000 N   0  0  0  0  0  0  0  0  0  0  0  0
   18.1865    2.1000    0.0000 O   0  0  0  0  0  0  0  0  0  0  0  0
   20.6114    0.7000    0.0000 C   0  0  0  0  0  0  0  0  0  0  0  0
   21.8238    0.0000    0.0000 C   0  0  0  0  0  0  0  0  0  0  0  0
   23.0363    0.7000    0.0000 C   0  0  0  0  0  0  0  0  0  0  0  0
  1  2  1  0  0  0  0
  2  3  1  0  0  0  0
  3  4  1  0  0  0  0
  4  5  1  0  0  0  0
  5  6  1  0  0  0  0
  6  7  1  0  0  0  0
  7  8  1  0  0  0  0
  8  9  1  0  0  0  0
  9 10  1  0  0  0  0
 10 11  1  0  0  0  0
 11 12  1  0  0  0  0
 12 13  1  0  0  0  0
 13 14  1  0  0  0  0
 14 15  1  0  0  0  0
 15 16  1  0  0  0  0
 16 17  1  0  0  0  0
 16 18  2  0  0  0  0
 17 19  1  0  0  0  0
 19 20  1  0  0  0  0
 20 21  1  0  0  0  0
M  END
> <Molecule Name>
561

> <CDD Number>
CDD-16129

> <Human_sEH_IC50_uM>
50.0

> <Mouse_sEH_IC50_uM>
50.0

$$$$

SketchEl molfile

 23 23  0  0  0  0  0  0  0  0999 V2000
    0.0000    0.7000    0.0000 C   0  0  0  0  0  0  0  0  0  0  0  0
    1.2124    1.4000    0.0000 C   0  0  0  0  0  0  0  0  0  0  0  0
    2.4249    0.7000    0.0000 C   0  0  0  0  0  0  0  0  0  0  0  0
    3.6373    1.4000    0.0000 C   0  0  0  0  0  0  0  0  0  0  0  0
    4.8497    0.7000    0.0000 C   0  0  0  0  0  0  0  0  0  0  0  0
    6.0622    1.4000    0.0000 C   0  0  0  0  0  0  0  0  0  0  0  0
    7.2746    0.7000    0.0000 C   0  0  0  0  0  0  0  0  0  0  0  0
    8.4870    1.4000    0.0000 C   0  0  0  0  0  0  0  0  0  0  0  0
    9.6995    0.7000    0.0000 C   0  0  0  0  0  0  0  0  0  0  0  0
   10.9119    1.4000    0.0000 C   0  0  0  0  0  0  0  0  0  0  0  0
   12.1244    0.7000    0.0000 C   0  0  0  0  0  0  0  0  0  0  0  0
   13.3368    1.4000    0.0000 C   0  0  0  0  0  0  0  0  0  0  0  0
   14.5492    0.7000    0.0000 N   0  0  0  0  0  0  0  0  0  0  0  0
   15.7617    1.4000    0.0000 S   0  0  0  0  0  0  0  0  0  0  0  0
   15.7617    2.8000    0.0000 O   0  0  0  0  0  0  0  0  0  0  0  0
   15.7617    0.0000    0.0000 O   0  0  0  0  0  0  0  0  0  0  0  0
   17.1617    1.4000    0.0000 C   0  0  0  0  0  0  0  0  0  0  0  0
   17.8617    0.1876    0.0000 C   0  0  0  0  0  0  0  0  0  0  0  0
   19.2617    0.1876    0.0000 C   0  0  0  0  0  0  0  0  0  0  0  0
   19.9617    1.4000    0.0000 C   0  0  0  0  0  0  0  0  0  0  0  0
   19.2617    2.6124    0.0000 C   0  0  0  0  0  0  0  0  0  0  0  0
   17.8617    2.6124    0.0000 C   0  0  0  0  0  0  0  0  0  0  0  0
   21.3617    1.4000    0.0000 C   0  0  0  0  0  0  0  0  0  0  0  0
  1  2  1  0  0  0  0
  2  3  1  0  0  0  0
  3  4  1  0  0  0  0
  4  5  1  0  0  0  0
  5  6  1  0  0  0  0
  6  7  1  0  0  0  0
  7  8  1  0  0  0  0
  8  9  1  0  0  0  0
  9 10  1  0  0  0  0
 10 11  1  0  0  0  0
 11 12  1  0  0  0  0
 12 13  1  0  0  0  0
 13 14  1  0  0  0  0
 14 15  2  0  0  0  0
 14 16  2  0  0  0  0
 14 17  1  0  0  0  0
 17 18  2  0  0  0  0
 18 19  1  0  0  0  0
 19 20  2  0  0  0  0
 20 21  1  0  0  0  0
 21 22  2  0  0  0  0
 22 17  1  0  0  0  0
 20 23  1  0  0  0  0
M  END
> <Molecule Name>
560

> <CDD Number>
CDD-5919

> <Human_sEH_IC50_uM>
500.0

> <Mouse_sEH_IC50_uM>
500.0

$$$$

SketchEl molfile

 24 27  0  0  0  0  0  0  0  0999 V2000
    0.0000    4.2000    0.0000 C   0  0  0  0  0  0  0  0  0  0  0  0
    0.0000    2.8000    0.0000 C   0  0  0  0  0  0  0  0  0  0  0  0
    1.2124    2.1000    0.0000 C   0  0  0  0  0  0  0  0  0  0  0  0
    2.4249    2.8000    0.0000 C   0  0  0  0  0  0  0  0  0  0  0  0
    2.4249    4.2000    0.0000 C   0  0  0  0  0  0  0  0  0  0  0  0
    1.2124    4.9000    0.0000 C   0  0  0  0  0  0  0  0  0  0  0  0
    3.6373    2.1000    0.0000 N   0  0  0  0  0  0  0  0  0  0  0  0
    4.8497    2.8000    0.0000 C   0  0  0  0  0  0  0  0  0  0  0  0
    6.0622    2.1000    0.0000 N   0  0  0  0  0  0  0  0  0  0  0  0
    4.8497    4.2000    0.0000 O   0  0  0  0  0  0  0  0  0  0  0  0
    7.2746    2.8000    0.0000 C   0  0  0  0  0  0  0  0  0  0  0  0
    8.4870    2.1000    0.0000 C   0  0  0  0  0  0  0  0  0  0  0  0
    9.6995    2.8000    0.0000 C   0  0  0  0  0  0  0  0  0  0  0  0
    9.6995    4.2000    0.0000 N   0  0  0  0  0  0  0  0  0  0  0  0
    8.4870    4.9000    0.0000 C   0  0  0  0  0  0  0  0  0  0  0  0
    7.2746    4.2000    0.0000 C   0  0  0  0  0  0  0  0  0  0  0  0
    8.4870    0.7000    0.0000 C   0  0  0  0  0  0  0  0  0  0  0  0
    9.6995    0.0000    0.0000 C   0  0  0  0  0  0  0  0  0  0  0  0
   10.9119    0.7000    0.0000 C   0  0  0  0  0  0  0  0  0  0  0  0
   10.9119    2.1000    0.0000 C   0  0  0  0  0  0  0  0  0  0  0  0
    8.4870    6.3000    0.0000 C   0  0  0  0  0  0  0  0  0  0  0  0
    7.2746    7.0000    0.0000 C   0  0  0  0  0  0  0  0  0  0  0  0
    6.0622    6.3000    0.0000 C   0  0  0  0  0  0  0  0  0  0  0  0
    6.0622    4.9000    0.0000 C   0  0  0  0  0  0  0  0  0  0  0  0
  1  2  1  0  0  0  0
  2  3  1  0  0  0  0
  3  4  1  0  0  0  0
  4  5  1  0  0  0  0
  5  6  1  0  0  0  0
  6  1  1  0  0  0  0
  4  7  1  0  0  0  0
  7  8  1  0  0  0  0
  8  9  1  0  0  0  0
  8 10  2  0  0  0  0
  9 11  1  0  0  0  0
 11 12  2  0  0  0  0
 12 13  1  0  0  0  0
 13 14  2  0  0  0  0
 14 15  1  0  0  0  0
 15 16  2  0  0  0  0
 16 11  1  0  0  0  0
 12 17  1  0  0  0  0
 17 18  2  0  0  0  0
 18 19  1  0  0  0  0
 19 20  2  0  0  0  0
 20 13  1  0  0  0  0
 15 21  1  0  0  0  0
 21 22  2  0  0  0  0
 22 23  1  0  0  0  0
 23 24  2  0  0  0  0
 24 16  1  0  0  0  0
M  END
> <Molecule Name>
559

> <CDD Number>
CDD-15977

> <Human_sEH_IC50_uM>
0.14

> <Mouse_sEH_IC50_uM>
0.08

$$$$

SketchEl molfile

 25 24  0  0  0  0  0  0  0  0999 V2000
   12.3119    0.1987    0.0000 C   0  0  0  0  0  0  0  0  0  0  0  0
   13.5244    0.8987    0.0000 C   0  0  0  0  0  0  0  0  0  0  0  0
   14.7368    0.1987    0.0000 C   0  0  0  0  0  0  0  0  0  0  0  0
   15.9492    0.8987    0.0000 C   0  0  0  0  0  0  0  0  0  0  0  0
   17.1617    0.1987    0.0000 C   0  0  0  0  0  0  0  0  0  0  0  0
   18.3741    0.8987    0.0000 C   0  0  0  0  0  0  0  0  0  0  0  0
   19.5865    0.1987    0.0000 C   0  0  0  0  0  0  0  0  0  0  0  0
   20.7990    0.8987    0.0000 C   0  0  0  0  0  0  0  0  0  0  0  0
   22.0114    0.1987    0.0000 N   0  0  0  0  0  0  0  0  0  0  0  0
   23.0014    0.7993    0.0000 C   0  0  0  0  0  0  0  0  0  0  0  0
   24.2138    0.0993    0.0000 N   0  0  0  0  0  0  0  0  0  0  0  0
   23.0014    2.1993    0.0000 O   0  0  0  0  0  0  0  0  0  0  0  0
   25.2037    0.7000    0.0000 C   0  0  0  0  0  0  0  0  0  0  0  0
   26.4162    0.0000    0.0000 C   0  0  0  0  0  0  0  0  0  0  0  0
   27.6286    0.7000    0.0000 C   0  0  0  0  0  0  0  0  0  0  0  0
   11.0995    0.8987    0.0000 C   0  0  0  0  0  0  0  0  0  0  0  0
    9.6995    0.8987    0.0000 C   0  0  0  0  0  0  0  0  0  0  0  0
    8.4870    0.1987    0.0000 C   0  0  0  0  0  0  0  0  0  0  0  0
    7.2746    0.8987    0.0000 C   0  0  0  0  0  0  0  0  0  0  0  0
    6.0622    0.1987    0.0000 C   0  0  0  0  0  0  0  0  0  0  0  0
    4.8497    0.8987    0.0000 C   0  0  0  0  0  0  0  0  0  0  0  0
    3.6373    0.1987    0.0000 C   0  0  0  0  0  0  0  0  0  0  0  0
    2.4249    0.8987    0.0000 C   0  0  0  0  0  0  0  0  0  0  0  0
    1.2124    0.1987    0.0000 C   0  0  0  0  0  0  0  0  0  0  0  0
    0.0000    0.8987    0.0000 C   0  0  0  0  0  0  0  0  0  0  0  0
  1  2  1  0  0  0  0
  2  3  1  0  0  0  0
  3  4  1  0  0  0  0
  4  5  1  0  0  0  0
  5  6  1  0  0  0  0
  6  7  1  0  0  0  0
  7  8  1  0  0  0  0
  8  9  1  0  0  0  0
  9 10  1  0  0  0  0
 10 11  1  0  0  0  0
 10 12  2  0  0  0  0
 11 13  1  0  0  0  0
 13 14  1  0  0  0  0
 14 15  1  0  0  0  0
  1 16  1  0  0  0  0
 16 17  2  0  0  0  0
 17 18  1  0  0  0  0
 18 19  1  0  0  0  0
 19 20  1  0  0  0  0
 20 21  1  0  0  0  0
 21 22  1  0  0  0  0
 22 23  1  0  0  0  0
 23 24  1  0  0  0  0
 24 25  1  0  0  0  0
M  END
> <Molecule Name>
558

> <CDD Number>
CDD-15866

> <Human_sEH_IC50_uM>
500.0

> <Mouse_sEH_IC50_uM>
500.0

$$$$

SketchEl molfile

 21 20  0  0  0  0  0  0  0  0999 V2000
    1.2124    0.1721    0.0000 C   0  0  0  0  0  0  0  0  0  0  0  0
    2.4249    0.8721    0.0000 C   0  0  0  0  0  0  0  0  0  0  0  0
    3.6373    0.1721    0.0000 C   0  0  0  0  0  0  0  0  0  0  0  0
    4.8497    0.8721    0.0000 C   0  0  0  0  0  0  0  0  0  0  0  0
    6.0622    0.1721    0.0000 C   0  0  0  0  0  0  0  0  0  0  0  0
    7.2746    0.8721    0.0000 C   0  0  0  0  0  0  0  0  0  0  0  0
    8.4870    0.1721    0.0000 C   0  0  0  0  0  0  0  0  0  0  0  0
    9.6995    0.8721    0.0000 C   0  0  0  0  0  0  0  0  0  0  0  0
   10.9119    0.1721    0.0000 C   0  0  0  0  0  0  0  0  0  0  0  0
   12.1244    0.8721    0.0000 C   0  0  0  0  0  0  0  0  0  0  0  0
   13.3368    0.1721    0.0000 C   0  0  0  0  0  0  0  0  0  0  0  0
   14.5492    0.8721    0.0000 C   0  0  0  0  0  0  0  0  0  0  0  0
   15.7617    0.1721    0.0000 N   0  0  0  0  0  0  0  0  0  0  0  0
   16.7516    0.7728    0.0000 C   0  0  0  0  0  0  0  0  0  0  0  0
   17.9640    0.0728    0.0000 N   0  0  0  0  0  0  0  0  0  0  0  0
   16.7516    2.1728    0.0000 O   0  0  0  0  0  0  0  0  0  0  0  0
   18.9540    0.6734    0.0000 C   0  0  0  0  0  0  0  0  0  0  0  0
   20.1814    0.0000    0.0000 C   0  0  0  0  0  0  0  0  0  0  0  0
   21.3783    0.7262    0.0000 C   0  0  0  0  0  0  0  0  0  0  0  0
   22.6057    0.0528    0.0000 C   0  0  0  0  0  0  0  0  0  0  0  0
    0.0000    0.8721    0.0000 C   0  0  0  0  0  0  0  0  0  0  0  0
  1  2  1  0  0  0  0
  2  3  1  0  0  0  0
  3  4  1  0  0  0  0
  4  5  1  0  0  0  0
  5  6  1  0  0  0  0
  6  7  1  0  0  0  0
  7  8  1  0  0  0  0
  8  9  1  0  0  0  0
  9 10  1  0  0  0  0
 10 11  1  0  0  0  0
 11 12  1  0  0  0  0
 12 13  1  0  0  0  0
 13 14  1  0  0  0  0
 14 15  1  0  0  0  0
 14 16  2  0  0  0  0
 15 17  1  0  0  0  0
 17 18  1  0  0  0  0
 18 19  1  0  0  0  0
 19 20  1  0  0  0  0
  1 21  1  0  0  0  0
M  END
> <Molecule Name>
557

> <CDD Number>
CDD-15858

> <Human_sEH_IC50_uM>
500.0

> <Mouse_sEH_IC50_uM>
500.0

$$$$

SketchEl molfile

 19 18  0  0  0  0  0  0  0  0999 V2000
    9.6995    0.7728    0.0000 C   0  0  0  0  0  0  0  0  0  0  0  0
   10.9119    0.0728    0.0000 C   0  0  0  0  0  0  0  0  0  0  0  0
   12.1244    0.7728    0.0000 C   0  0  0  0  0  0  0  0  0  0  0  0
   13.3368    0.0728    0.0000 N   0  0  0  0  0  0  0  0  0  0  0  0
   14.5492    0.7728    0.0000 C   0  0  0  0  0  0  0  0  0  0  0  0
   15.7617    0.0728    0.0000 N   0  0  0  0  0  0  0  0  0  0  0  0
   14.5492    2.1728    0.0000 O   0  0  0  0  0  0  0  0  0  0  0  0
    8.4870    0.0728    0.0000 C   0  0  0  0  0  0  0  0  0  0  0  0
    7.2746    0.7728    0.0000 C   0  0  0  0  0  0  0  0  0  0  0  0
    6.0622    0.0728    0.0000 C   0  0  0  0  0  0  0  0  0  0  0  0
    4.8497    0.7728    0.0000 C   0  0  0  0  0  0  0  0  0  0  0  0
    3.6373    0.0727    0.0000 C   0  0  0  0  0  0  0  0  0  0  0  0
   16.7516    0.6734    0.0000 C   0  0  0  0  0  0  0  0  0  0  0  0
    2.4249    0.7727    0.0000 C   0  0  0  0  0  0  0  0  0  0  0  0
    1.2124    0.0727    0.0000 C   0  0  0  0  0  0  0  0  0  0  0  0
   17.9790    0.0000    0.0000 C   0  0  0  0  0  0  0  0  0  0  0  0
   19.1759    0.7262    0.0000 C   0  0  0  0  0  0  0  0  0  0  0  0
    0.0000    0.7727    0.0000 C   0  0  0  0  0  0  0  0  0  0  0  0
   20.4033    0.0528    0.0000 C   0  0  0  0  0  0  0  0  0  0  0  0
  1  2  1  0  0  0  0
  2  3  1  0  0  0  0
  3  4  1  0  0  0  0
  4  5  1  0  0  0  0
  5  6  1  0  0  0  0
  5  7  2  0  0  0  0
  1  8  1  0  0  0  0
  8  9  1  0  0  0  0
  9 10  1  0  0  0  0
 10 11  1  0  0  0  0
 11 12  1  0  0  0  0
  6 13  1  0  0  0  0
 12 14  1  0  0  0  0
 14 15  1  0  0  0  0
 13 16  1  0  0  0  0
 16 17  1  0  0  0  0
 15 18  1  0  0  0  0
 17 19  1  0  0  0  0
M  END
> <Molecule Name>
556

> <CDD Number>
CDD-15835

> <Human_sEH_IC50_uM>
0.74

> <Mouse_sEH_IC50_uM>
0.2

$$$$

SketchEl molfile

 20 19  0  0  0  0  0  0  0  0999 V2000
   10.9119    0.7728    0.0000 C   0  0  0  0  0  0  0  0  0  0  0  0
   12.1244    0.0728    0.0000 C   0  0  0  0  0  0  0  0  0  0  0  0
   13.3368    0.7728    0.0000 C   0  0  0  0  0  0  0  0  0  0  0  0
   14.5492    0.0728    0.0000 N   0  0  0  0  0  0  0  0  0  0  0  0
   15.7617    0.7728    0.0000 C   0  0  0  0  0  0  0  0  0  0  0  0
   16.9741    0.0728    0.0000 N   0  0  0  0  0  0  0  0  0  0  0  0
   15.7617    2.1728    0.0000 O   0  0  0  0  0  0  0  0  0  0  0  0
    9.6995    0.0728    0.0000 C   0  0  0  0  0  0  0  0  0  0  0  0
    8.4870    0.7728    0.0000 C   0  0  0  0  0  0  0  0  0  0  0  0
    7.2746    0.0728    0.0000 C   0  0  0  0  0  0  0  0  0  0  0  0
    6.0622    0.7728    0.0000 C   0  0  0  0  0  0  0  0  0  0  0  0
    4.8497    0.0728    0.0000 C   0  0  0  0  0  0  0  0  0  0  0  0
    3.6373    0.7728    0.0000 C   0  0  0  0  0  0  0  0  0  0  0  0
    2.4249    0.0728    0.0000 C   0  0  0  0  0  0  0  0  0  0  0  0
    1.2124    0.7728    0.0000 C   0  0  0  0  0  0  0  0  0  0  0  0
    0.0000    0.0728    0.0000 C   0  0  0  0  0  0  0  0  0  0  0  0
   17.9640    0.6734    0.0000 C   0  0  0  0  0  0  0  0  0  0  0  0
   19.1914    0.0000    0.0000 C   0  0  0  0  0  0  0  0  0  0  0  0
   17.9640    2.0734    0.0000 O   0  0  0  0  0  0  0  0  0  0  0  0
   20.3883    0.7262    0.0000 Cl  0  0  0  0  0  0  0  0  0  0  0  0
  1  2  1  0  0  0  0
  2  3  1  0  0  0  0
  3  4  1  0  0  0  0
  4  5  1  0  0  0  0
  5  6  1  0  0  0  0
  5  7  2  0  0  0  0
  1  8  1  0  0  0  0
  8  9  1  0  0  0  0
  9 10  1  0  0  0  0
 10 11  1  0  0  0  0
 11 12  1  0  0  0  0
 12 13  1  0  0  0  0
 13 14  1  0  0  0  0
 14 15  1  0  0  0  0
 15 16  1  0  0  0  0
  6 17  1  0  0  0  0
 17 18  1  0  0  0  0
 17 19  2  0  0  0  0
 18 20  1  0  0  0  0
M  END
> <Molecule Name>
555

> <CDD Number>
CDD-15846

> <Human_sEH_IC50_uM>
500.0

> <Mouse_sEH_IC50_uM>
500.0

$$$$

SketchEl molfile

 19 18  0  0  0  0  0  0  0  0999 V2000
   10.9119    0.7728    0.0000 C   0  0  0  0  0  0  0  0  0  0  0  0
   12.1244    0.0728    0.0000 C   0  0  0  0  0  0  0  0  0  0  0  0
   13.3368    0.7728    0.0000 C   0  0  0  0  0  0  0  0  0  0  0  0
   14.5492    0.0728    0.0000 N   0  0  0  0  0  0  0  0  0  0  0  0
   15.7617    0.7728    0.0000 C   0  0  0  0  0  0  0  0  0  0  0  0
   16.9741    0.0728    0.0000 N   0  0  0  0  0  0  0  0  0  0  0  0
   15.7617    2.1728    0.0000 O   0  0  0  0  0  0  0  0  0  0  0  0
    9.6995    0.0728    0.0000 C   0  0  0  0  0  0  0  0  0  0  0  0
    8.4870    0.7728    0.0000 C   0  0  0  0  0  0  0  0  0  0  0  0
    7.2746    0.0728    0.0000 C   0  0  0  0  0  0  0  0  0  0  0  0
    6.0622    0.7728    0.0000 C   0  0  0  0  0  0  0  0  0  0  0  0
    4.8497    0.0728    0.0000 C   0  0  0  0  0  0  0  0  0  0  0  0
    3.6373    0.7728    0.0000 C   0  0  0  0  0  0  0  0  0  0  0  0
    2.4249    0.0728    0.0000 C   0  0  0  0  0  0  0  0  0  0  0  0
    1.2124    0.7728    0.0000 C   0  0  0  0  0  0  0  0  0  0  0  0
    0.0000    0.0728    0.0000 C   0  0  0  0  0  0  0  0  0  0  0  0
   17.9640    0.6734    0.0000 C   0  0  0  0  0  0  0  0  0  0  0  0
   19.1914    0.0000    0.0000 C   0  0  0  0  0  0  0  0  0  0  0  0
   20.5914    0.0000    0.0000 C   0  0  0  0  0  0  0  0  0  0  0  0
  1  2  1  0  0  0  0
  2  3  1  0  0  0  0
  3  4  1  0  0  0  0
  4  5  1  0  0  0  0
  5  6  1  0  0  0  0
  5  7  2  0  0  0  0
  1  8  1  0  0  0  0
  8  9  1  0  0  0  0
  9 10  1  0  0  0  0
 10 11  1  0  0  0  0
 11 12  1  0  0  0  0
 12 13  1  0  0  0  0
 13 14  1  0  0  0  0
 14 15  1  0  0  0  0
 15 16  1  0  0  0  0
  6 17  1  0  0  0  0
 17 18  1  0  0  0  0
 18 19  3  0  0  0  0
M  END
> <Molecule Name>
554

> <CDD Number>
CDD-15841

> <Human_sEH_IC50_uM>
500.0

> <Mouse_sEH_IC50_uM>
200.0

$$$$

SketchEl molfile

 19 20  0  0  0  0  0  0  0  0999 V2000
    0.0000    4.3193    0.0000 C   0  0  0  0  0  0  0  0  0  0  0  0
    0.0000    2.9193    0.0000 C   0  0  0  0  0  0  0  0  0  0  0  0
    1.2124    2.2193    0.0000 C   0  0  0  0  0  0  0  0  0  0  0  0
    2.4249    2.9193    0.0000 C   0  0  0  0  0  0  0  0  0  0  0  0
    2.4249    4.3193    0.0000 C   0  0  0  0  0  0  0  0  0  0  0  0
    1.2124    5.0193    0.0000 C   0  0  0  0  0  0  0  0  0  0  0  0
    3.6373    2.2193    0.0000 N   0  0  0  0  0  0  0  0  0  0  0  0
    4.6273    2.8199    0.0000 C   0  0  0  0  0  0  0  0  0  0  0  0
    5.8397    2.1199    0.0000 N   0  0  0  0  0  0  0  0  0  0  0  0
    4.6273    4.2199    0.0000 S   0  0  0  0  0  0  0  0  0  0  0  0
    6.8296    2.7206    0.0000 C   0  0  0  0  0  0  0  0  0  0  0  0
    8.0570    2.0472    0.0000 C   0  0  0  0  0  0  0  0  0  0  0  0
    9.2539    2.7734    0.0000 C   0  0  0  0  0  0  0  0  0  0  0  0
   10.4813    2.1000    0.0000 C   0  0  0  0  0  0  0  0  0  0  0  0
   10.4813    0.7000    0.0000 C   0  0  0  0  0  0  0  0  0  0  0  0
   11.6938    0.0000    0.0000 C   0  0  0  0  0  0  0  0  0  0  0  0
   12.9062    0.7000    0.0000 C   0  0  0  0  0  0  0  0  0  0  0  0
   12.9062    2.1000    0.0000 C   0  0  0  0  0  0  0  0  0  0  0  0
   11.6938    2.8000    0.0000 C   0  0  0  0  0  0  0  0  0  0  0  0
  1  2  1  0  0  0  0
  2  3  1  0  0  0  0
  3  4  1  0  0  0  0
  4  5  1  0  0  0  0
  5  6  1  0  0  0  0
  6  1  1  0  0  0  0
  4  7  1  0  0  0  0
  7  8  1  0  0  0  0
  8  9  1  0  0  0  0
  8 10  2  0  0  0  0
  9 11  1  0  0  0  0
 11 12  1  0  0  0  0
 12 13  1  0  0  0  0
 13 14  1  0  0  0  0
 14 15  2  0  0  0  0
 15 16  1  0  0  0  0
 16 17  2  0  0  0  0
 17 18  1  0  0  0  0
 18 19  2  0  0  0  0
 19 14  1  0  0  0  0
M  END
> <Molecule Name>
553

> <CDD Number>
CDD-15788

> <Human_sEH_IC50_uM>
5.0

> <Mouse_sEH_IC50_uM>
30.0

$$$$

SketchEl molfile

 16 15  0  0  0  0  0  0  0  0999 V2000
    0.0000    0.0000    0.0000 C   0  0  0  0  0  0  0  0  0  0  0  0
    1.2124    0.7000    0.0000 C   0  0  0  0  0  0  0  0  0  0  0  0
    2.4249    0.0000    0.0000 C   0  0  0  0  0  0  0  0  0  0  0  0
    3.6373    0.7000    0.0000 C   0  0  0  0  0  0  0  0  0  0  0  0
    4.8497    0.0000    0.0000 C   0  0  0  0  0  0  0  0  0  0  0  0
    6.0622    0.7000    0.0000 C   0  0  0  0  0  0  0  0  0  0  0  0
    7.2746    0.0000    0.0000 C   0  0  0  0  0  0  0  0  0  0  0  0
    8.4870    0.7000    0.0000 C   0  0  0  0  0  0  0  0  0  0  0  0
    9.6995    0.0000    0.0000 C   0  0  0  0  0  0  0  0  0  0  0  0
   10.9119    0.7000    0.0000 C   0  0  0  0  0  0  0  0  0  0  0  0
   12.1244    0.0000    0.0000 C   0  0  0  0  0  0  0  0  0  0  0  0
   13.3368    0.7000    0.0000 C   0  0  0  0  0  0  0  0  0  0  0  0
   14.5492    0.0000    0.0000 N   0  0  0  0  0  0  0  0  0  0  0  0
   13.3368    2.1000    0.0000 O   0  0  0  0  0  0  0  0  0  0  0  0
   15.7617    0.7000    0.0000 O   0  0  0  0  0  0  0  0  0  0  0  0
   16.9741    0.0000    0.0000 C   0  0  0  0  0  0  0  0  0  0  0  0
  1  2  1  0  0  0  0
  2  3  1  0  0  0  0
  3  4  1  0  0  0  0
  4  5  1  0  0  0  0
  5  6  1  0  0  0  0
  6  7  1  0  0  0  0
  7  8  1  0  0  0  0
  8  9  1  0  0  0  0
  9 10  1  0  0  0  0
 10 11  1  0  0  0  0
 11 12  1  0  0  0  0
 12 13  1  0  0  0  0
 12 14  2  0  0  0  0
 13 15  1  0  0  0  0
 15 16  1  0  0  0  0
M  END
> <Molecule Name>
552

> <CDD Number>
CDD-16123

> <Human_sEH_IC50_uM>
500.0

> <Mouse_sEH_IC50_uM>
500.0

$$$$

SketchEl molfile

 17 18  0  0  0  0  0  0  0  0999 V2000
    0.0000    0.8987    0.0000 C   0  0  0  0  0  0  0  0  0  0  0  0
    1.2124    0.1987    0.0000 C   0  0  0  0  0  0  0  0  0  0  0  0
    2.4249    0.8987    0.0000 C   0  0  0  0  0  0  0  0  0  0  0  0
    2.4249    2.2987    0.0000 C   0  0  0  0  0  0  0  0  0  0  0  0
    1.2124    2.9987    0.0000 C   0  0  0  0  0  0  0  0  0  0  0  0
    0.0000    2.2987    0.0000 C   0  0  0  0  0  0  0  0  0  0  0  0
    3.6373    0.1987    0.0000 N   0  0  0  0  0  0  0  0  0  0  0  0
    4.6273    0.7993    0.0000 C   0  0  0  0  0  0  0  0  0  0  0  0
    5.8397    0.0993    0.0000 N   0  0  0  0  0  0  0  0  0  0  0  0
    4.6273    2.1993    0.0000 O   0  0  0  0  0  0  0  0  0  0  0  0
    6.8296    0.7000    0.0000 C   0  0  0  0  0  0  0  0  0  0  0  0
    8.0421    0.0000    0.0000 C   0  0  0  0  0  0  0  0  0  0  0  0
    9.2545    0.7000    0.0000 C   0  0  0  0  0  0  0  0  0  0  0  0
    9.2545    2.1000    0.0000 C   0  0  0  0  0  0  0  0  0  0  0  0
    8.0421    2.8000    0.0000 C   0  0  0  0  0  0  0  0  0  0  0  0
    6.8296    2.1000    0.0000 C   0  0  0  0  0  0  0  0  0  0  0  0
    5.6172    2.8000    0.0000 C   0  0  0  0  0  0  0  0  0  0  0  0
  1  2  1  0  0  0  0
  2  3  1  0  0  0  0
  3  4  1  0  0  0  0
  4  5  1  0  0  0  0
  5  6  1  0  0  0  0
  6  1  1  0  0  0  0
  3  7  1  0  0  0  0
  7  8  1  0  0  0  0
  8  9  1  0  0  0  0
  8 10  2  0  0  0  0
  9 11  1  0  0  0  0
 11 12  1  0  0  0  0
 12 13  1  0  0  0  0
 13 14  1  0  0  0  0
 14 15  1  0  0  0  0
 15 16  1  0  0  0  0
 16 11  1  0  0  0  0
 16 17  1  0  0  0  0
M  END
> <Molecule Name>
551

> <CDD Number>
CDD-15942

> <Human_sEH_IC50_uM>
0.1

> <Mouse_sEH_IC50_uM>
0.05

$$$$

SketchEl molfile

 11 11  0  0  0  0  0  0  0  0999 V2000
    0.0000    0.7000    0.0000 C   0  0  0  0  0  0  0  0  0  0  0  0
    1.2124    0.0000    0.0000 C   0  0  0  0  0  0  0  0  0  0  0  0
    2.4249    0.7000    0.0000 C   0  0  0  0  0  0  0  0  0  0  0  0
    2.4249    2.1000    0.0000 C   0  0  0  0  0  0  0  0  0  0  0  0
    1.2124    2.8000    0.0000 C   0  0  0  0  0  0  0  0  0  0  0  0
    0.0000    2.1000    0.0000 C   0  0  0  0  0  0  0  0  0  0  0  0
    3.6373    2.8000    0.0000 C   0  0  0  0  0  0  0  0  0  0  0  0
    4.8497    2.1000    0.0000 C   0  0  0  0  0  0  0  0  0  0  0  0
    6.0622    2.8000    0.0000 C   0  0  0  0  0  0  0  0  0  0  0  0
    7.2746    2.1000    0.0000 N   0  0  0  0  0  0  0  0  0  0  0  0
    6.0622    4.2000    0.0000 O   0  0  0  0  0  0  0  0  0  0  0  0
  1  2  2  0  0  0  0
  2  3  1  0  0  0  0
  3  4  2  0  0  0  0
  4  5  1  0  0  0  0
  5  6  2  0  0  0  0
  6  1  1  0  0  0  0
  4  7  1  0  0  0  0
  7  8  2  0  0  0  0
  8  9  1  0  0  0  0
  9 10  1  0  0  0  0
  9 11  2  0  0  0  0
M  END
> <Molecule Name>
550

> <CDD Number>
CDD-16167

> <Human_sEH_IC50_uM>
500.0

> <Mouse_sEH_IC50_uM>
500.0

$$$$

SketchEl molfile

 15 15  0  0  0  0  0  0  0  0999 V2000
    0.0000    2.2987    0.0000 C   0  0  0  0  0  0  0  0  0  0  0  0
    1.2124    1.5987    0.0000 C   0  0  0  0  0  0  0  0  0  0  0  0
    2.4249    2.2987    0.0000 C   0  0  0  0  0  0  0  0  0  0  0  0
    2.4249    3.6987    0.0000 C   0  0  0  0  0  0  0  0  0  0  0  0
    1.2124    4.3987    0.0000 C   0  0  0  0  0  0  0  0  0  0  0  0
    0.0000    3.6987    0.0000 C   0  0  0  0  0  0  0  0  0  0  0  0
    3.6373    1.5987    0.0000 N   0  0  0  0  0  0  0  0  0  0  0  0
    4.6273    2.1993    0.0000 C   0  0  0  0  0  0  0  0  0  0  0  0
    5.8397    1.4993    0.0000 N   0  0  0  0  0  0  0  0  0  0  0  0
    4.6273    3.5993    0.0000 O   0  0  0  0  0  0  0  0  0  0  0  0
    6.8296    2.1000    0.0000 C   0  0  0  0  0  0  0  0  0  0  0  0
    8.0421    1.4000    0.0000 C   0  0  0  0  0  0  0  0  0  0  0  0
    9.2545    2.1000    0.0000 O   0  0  0  0  0  0  0  0  0  0  0  0
   10.4669    1.4000    0.0000 C   0  0  0  0  0  0  0  0  0  0  0  0
    8.0421    0.0000    0.0000 O   0  0  0  0  0  0  0  0  0  0  0  0
  1  2  1  0  0  0  0
  2  3  1  0  0  0  0
  3  4  1  0  0  0  0
  4  5  1  0  0  0  0
  5  6  1  0  0  0  0
  6  1  1  0  0  0  0
  3  7  1  0  0  0  0
  7  8  1  0  0  0  0
  8  9  1  0  0  0  0
  8 10  2  0  0  0  0
  9 11  1  0  0  0  0
 11 12  1  0  0  0  0
 12 13  1  0  0  0  0
 13 14  1  0  0  0  0
 12 15  2  0  0  0  0
M  END
> <Molecule Name>
549

> <CDD Number>
CDD-15911

> <Human_sEH_IC50_uM>
70.0

> <Mouse_sEH_IC50_uM>
33.0

$$$$

SketchEl molfile

 15 14  0  0  0  0  0  0  0  0999 V2000
    0.0000    0.0000    0.0000 C   0  0  0  0  0  0  0  0  0  0  0  0
    1.2124    0.7000    0.0000 C   0  0  0  0  0  0  0  0  0  0  0  0
    2.4249    0.0000    0.0000 C   0  0  0  0  0  0  0  0  0  0  0  0
    3.6373    0.7000    0.0000 C   0  0  0  0  0  0  0  0  0  0  0  0
    4.8497    0.0000    0.0000 C   0  0  0  0  0  0  0  0  0  0  0  0
    6.0622    0.7000    0.0000 C   0  0  0  0  0  0  0  0  0  0  0  0
    7.2746    0.0000    0.0000 C   0  0  0  0  0  0  0  0  0  0  0  0
    8.4870    0.7000    0.0000 C   0  0  0  0  0  0  0  0  0  0  0  0
    9.6995    0.0000    0.0000 C   0  0  0  0  0  0  0  0  0  0  0  0
   10.9119    0.7000    0.0000 C   0  0  0  0  0  0  0  0  0  0  0  0
   12.1244    0.0000    0.0000 C   0  0  0  0  0  0  0  0  0  0  0  0
   13.3368    0.7000    0.0000 C   0  0  0  0  0  0  0  0  0  0  0  0
   14.5492    0.0000    0.0000 N   0  0  0  0  0  0  0  0  0  0  0  0
   13.3368    2.1000    0.0000 O   0  0  0  0  0  0  0  0  0  0  0  0
   15.7617    0.7000    0.0000 O   0  0  0  0  0  0  0  0  0  0  0  0
  1  2  1  0  0  0  0
  2  3  1  0  0  0  0
  3  4  1  0  0  0  0
  4  5  1  0  0  0  0
  5  6  1  0  0  0  0
  6  7  1  0  0  0  0
  7  8  1  0  0  0  0
  8  9  1  0  0  0  0
  9 10  1  0  0  0  0
 10 11  1  0  0  0  0
 11 12  1  0  0  0  0
 12 13  1  0  0  0  0
 12 14  2  0  0  0  0
 13 15  1  0  0  0  0
M  END
> <Molecule Name>
548

> <CDD Number>
CDD-16122

> <Human_sEH_IC50_uM>
500.0

> <Mouse_sEH_IC50_uM>
500.0

$$$$

SketchEl molfile

 17 16  0  0  0  0  0  0  0  0999 V2000
    0.0000    0.0000    0.0000 C   0  0  0  0  0  0  0  0  0  0  0  0
    1.2124    0.7000    0.0000 C   0  0  0  0  0  0  0  0  0  0  0  0
    2.4249    0.0000    0.0000 C   0  0  0  0  0  0  0  0  0  0  0  0
    3.6373    0.7000    0.0000 C   0  0  0  0  0  0  0  0  0  0  0  0
    4.8497    0.0000    0.0000 C   0  0  0  0  0  0  0  0  0  0  0  0
    6.0622    0.7000    0.0000 C   0  0  0  0  0  0  0  0  0  0  0  0
    7.2746    0.0000    0.0000 C   0  0  0  0  0  0  0  0  0  0  0  0
    8.4870    0.7000    0.0000 C   0  0  0  0  0  0  0  0  0  0  0  0
    9.6995    0.0000    0.0000 C   0  0  0  0  0  0  0  0  0  0  0  0
   10.9119    0.7000    0.0000 C   0  0  0  0  0  0  0  0  0  0  0  0
   12.1244    0.0000    0.0000 C   0  0  0  0  0  0  0  0  0  0  0  0
   13.3368    0.7000    0.0000 C   0  0  0  0  0  0  0  0  0  0  0  0
   14.5492    0.0000    0.0000 N   0  0  0  0  0  0  0  0  0  0  0  0
   13.3368    2.1000    0.0000 O   0  0  0  0  0  0  0  0  0  0  0  0
   15.7617    0.7000    0.0000 C   0  0  0  0  0  0  0  0  0  0  0  0
   16.9741    0.0000    0.0000 C   0  0  0  0  0  0  0  0  0  0  0  0
   18.1865    0.7000    0.0000 C   0  0  0  0  0  0  0  0  0  0  0  0
  1  2  1  0  0  0  0
  2  3  1  0  0  0  0
  3  4  1  0  0  0  0
  4  5  1  0  0  0  0
  5  6  1  0  0  0  0
  6  7  1  0  0  0  0
  7  8  1  0  0  0  0
  8  9  1  0  0  0  0
  9 10  1  0  0  0  0
 10 11  1  0  0  0  0
 11 12  1  0  0  0  0
 12 13  1  0  0  0  0
 12 14  2  0  0  0  0
 13 15  1  0  0  0  0
 15 16  1  0  0  0  0
 16 17  1  0  0  0  0
M  END
> <Molecule Name>
547

> <CDD Number>
CDD-16119

> <Human_sEH_IC50_uM>
39.0

> <Mouse_sEH_IC50_uM>
3.2

$$$$

SketchEl molfile

 17 18  0  0  0  0  0  0  0  0999 V2000
    0.0000    4.2000    0.0000 C   0  0  0  0  0  0  0  0  0  0  0  0
    0.0000    2.8000    0.0000 C   0  0  0  0  0  0  0  0  0  0  0  0
    1.2124    2.1000    0.0000 C   0  0  0  0  0  0  0  0  0  0  0  0
    2.4249    2.8000    0.0000 C   0  0  0  0  0  0  0  0  0  0  0  0
    2.4249    4.2000    0.0000 C   0  0  0  0  0  0  0  0  0  0  0  0
    1.2124    4.9000    0.0000 C   0  0  0  0  0  0  0  0  0  0  0  0
    3.6373    2.1000    0.0000 N   0  0  0  0  0  0  0  0  0  0  0  0
    4.8497    2.8000    0.0000 C   0  0  0  0  0  0  0  0  0  0  0  0
    6.0622    2.1000    0.0000 N   0  0  0  0  0  0  0  0  0  0  0  0
    4.8497    4.2000    0.0000 O   0  0  0  0  0  0  0  0  0  0  0  0
    7.2746    2.8000    0.0000 N   0  0  0  0  0  0  0  0  0  0  0  0
    8.4870    2.1000    0.0000 C   0  0  0  0  0  0  0  0  0  0  0  0
    8.4870    0.7000    0.0000 C   0  0  0  0  0  0  0  0  0  0  0  0
    9.6995    0.0000    0.0000 C   0  0  0  0  0  0  0  0  0  0  0  0
   10.9119    0.7000    0.0000 C   0  0  0  0  0  0  0  0  0  0  0  0
   10.9119    2.1000    0.0000 C   0  0  0  0  0  0  0  0  0  0  0  0
    9.6995    2.8000    0.0000 C   0  0  0  0  0  0  0  0  0  0  0  0
  1  2  1  0  0  0  0
  2  3  1  0  0  0  0
  3  4  1  0  0  0  0
  4  5  1  0  0  0  0
  5  6  1  0  0  0  0
  6  1  1  0  0  0  0
  4  7  1  0  0  0  0
  7  8  1  0  0  0  0
  8  9  1  0  0  0  0
  8 10  2  0  0  0  0
  9 11  1  0  0  0  0
 11 12  1  0  0  0  0
 12 13  2  0  0  0  0
 13 14  1  0  0  0  0
 14 15  2  0  0  0  0
 15 16  1  0  0  0  0
 16 17  2  0  0  0  0
 17 12  1  0  0  0  0
M  END
> <Molecule Name>
546

> <CDD Number>
CDD-15963

> <Human_sEH_IC50_uM>
72.0

> <Mouse_sEH_IC50_uM>
23.6

$$$$

SketchEl molfile

 18 19  0  0  0  0  0  0  0  0999 V2000
    7.2746    2.8000    0.0000 C   0  0  0  0  0  0  0  0  0  0  0  0
    6.0622    2.1000    0.0000 N   0  0  0  0  0  0  0  0  0  0  0  0
    4.8497    2.8000    0.0000 C   0  0  0  0  0  0  0  0  0  0  0  0
    3.6373    2.1000    0.0000 N   0  0  0  0  0  0  0  0  0  0  0  0
    4.8497    4.2000    0.0000 O   0  0  0  0  0  0  0  0  0  0  0  0
    2.4249    2.8000    0.0000 C   0  0  0  0  0  0  0  0  0  0  0  0
    2.4249    4.2000    0.0000 C   0  0  0  0  0  0  0  0  0  0  0  0
    1.2124    4.9000    0.0000 C   0  0  0  0  0  0  0  0  0  0  0  0
    0.0000    4.2000    0.0000 C   0  0  0  0  0  0  0  0  0  0  0  0
    0.0000    2.8000    0.0000 C   0  0  0  0  0  0  0  0  0  0  0  0
    1.2124    2.1000    0.0000 C   0  0  0  0  0  0  0  0  0  0  0  0
    8.4870    2.1000    0.0000 C   0  0  0  0  0  0  0  0  0  0  0  0
    8.4870    0.7000    0.0000 C   0  0  0  0  0  0  0  0  0  0  0  0
    9.6995    0.0000    0.0000 C   0  0  0  0  0  0  0  0  0  0  0  0
   10.9119    0.7000    0.0000 C   0  0  0  0  0  0  0  0  0  0  0  0
   10.9119    2.1000    0.0000 C   0  0  0  0  0  0  0  0  0  0  0  0
    9.6995    2.8000    0.0000 C   0  0  0  0  0  0  0  0  0  0  0  0
    7.2746    4.2000    0.0000 C   0  0  0  0  0  0  0  0  0  0  0  0
  1  2  1  0  0  0  0
  2  3  1  0  0  0  0
  3  4  1  0  0  0  0
  3  5  2  0  0  0  0
  4  6  1  0  0  0  0
  6  7  1  0  0  0  0
  7  8  1  0  0  0  0
  8  9  1  0  0  0  0
  9 10  1  0  0  0  0
 10 11  1  0  0  0  0
 11  6  1  0  0  0  0
  1 12  1  0  0  0  0
 12 13  2  0  0  0  0
 13 14  1  0  0  0  0
 14 15  2  0  0  0  0
 15 16  1  0  0  0  0
 16 17  2  0  0  0  0
 17 12  1  0  0  0  0
  1 18  1  6  0  0  0
M  END
> <Molecule Name>
545

> <CDD Number>
CDD-15961

> <Human_sEH_IC50_uM>
3.7

> <Mouse_sEH_IC50_uM>
0.05

$$$$

SketchEl molfile

 19 19  0  0  0  0  0  0  0  0999 V2000
    7.2746    3.2265    0.0000 C   0  0  0  0  0  0  0  0  0  0  0  0
    6.0622    2.5265    0.0000 N   0  0  0  0  0  0  0  0  0  0  0  0
    4.8497    3.2265    0.0000 C   0  0  0  0  0  0  0  0  0  0  0  0
    3.6373    2.5265    0.0000 N   0  0  0  0  0  0  0  0  0  0  0  0
    4.8497    4.6265    0.0000 O   0  0  0  0  0  0  0  0  0  0  0  0
    2.4249    3.2265    0.0000 C   0  0  0  0  0  0  0  0  0  0  0  0
    2.4249    4.6265    0.0000 C   0  0  0  0  0  0  0  0  0  0  0  0
    1.2124    5.3265    0.0000 C   0  0  0  0  0  0  0  0  0  0  0  0
    0.0000    4.6265    0.0000 C   0  0  0  0  0  0  0  0  0  0  0  0
    0.0000    3.2265    0.0000 C   0  0  0  0  0  0  0  0  0  0  0  0
    1.2124    2.5265    0.0000 C   0  0  0  0  0  0  0  0  0  0  0  0
    8.4870    2.5265    0.0000 C   0  0  0  0  0  0  0  0  0  0  0  0
    8.4870    1.1265    0.0000 C   0  0  0  0  0  0  0  0  0  0  0  0
    9.6995    0.4265    0.0000 C   0  0  0  0  0  0  0  0  0  0  0  0
   10.9119    1.1265    0.0000 C   0  0  0  0  0  0  0  0  0  0  0  0
   10.9119    2.5265    0.0000 C   0  0  0  0  0  0  0  0  0  0  0  0
    9.6995    3.2265    0.0000 C   0  0  0  0  0  0  0  0  0  0  0  0
    7.2746    4.6265    0.0000 C   0  0  0  0  0  0  0  0  0  0  0  0
    6.4058    0.0000    0.0000 S   0  5  0  0  0  0  0  0  0  0  0  0
  1  2  1  0  0  0  0
  2  3  1  0  0  0  0
  3  4  1  0  0  0  0
  3  5  2  0  0  0  0
  4  6  1  0  0  0  0
  6  7  1  0  0  0  0
  7  8  1  0  0  0  0
  8  9  1  0  0  0  0
  9 10  1  0  0  0  0
 10 11  1  0  0  0  0
 11  6  1  0  0  0  0
  1 12  1  0  0  0  0
 12 13  2  0  0  0  0
 13 14  1  0  0  0  0
 14 15  2  0  0  0  0
 15 16  1  0  0  0  0
 16 17  2  0  0  0  0
 17 12  1  0  0  0  0
  1 18  1  1  0  0  0
M  CHG  1  19  -1
M  END
> <Molecule Name>
544

> <Human_sEH_IC50_uM>
0.1

> <Mouse_sEH_IC50_uM>
0.05

$$$$

SketchEl molfile

 17 19  0  0  0  0  0  0  0  0999 V2000
    0.0000    2.1000    0.0000 C   0  0  0  0  0  0  0  0  0  0  0  0
    0.0000    0.7000    0.0000 C   0  0  0  0  0  0  0  0  0  0  0  0
    1.2124    0.0000    0.0000 C   0  0  0  0  0  0  0  0  0  0  0  0
    2.4249    0.7000    0.0000 C   0  0  0  0  0  0  0  0  0  0  0  0
    2.4249    2.1000    0.0000 C   0  0  0  0  0  0  0  0  0  0  0  0
    1.2124    2.8000    0.0000 C   0  0  0  0  0  0  0  0  0  0  0  0
    3.6373    0.0000    0.0000 N   0  0  0  0  0  0  0  0  0  0  0  0
    4.8497    0.7000    0.0000 C   0  0  0  0  0  0  0  0  0  0  0  0
    6.0622    0.0000    0.0000 N   0  0  0  0  0  0  0  0  0  0  0  0
    4.8497    2.1000    0.0000 O   0  0  0  0  0  0  0  0  0  0  0  0
    7.0521    0.6007    0.0000 C   0  0  0  0  0  0  0  0  0  0  0  0
    8.4356    0.8153    0.0000 C   0  0  0  0  0  0  0  0  0  0  0  0
    9.7402    0.3075    0.0000 C   0  0  0  0  0  0  0  0  0  0  0  0
   10.5694    1.4354    0.0000 C   0  0  0  0  0  0  0  0  0  0  0  0
    7.8813    1.7286    0.0000 C   0  0  0  0  0  0  0  0  0  0  0  0
    9.2647    1.9432    0.0000 C   0  0  0  0  0  0  0  0  0  0  0  0
    8.7007    3.2230    0.0000 C   0  0  0  0  0  0  0  0  0  0  0  0
  1  2  1  0  0  0  0
  2  3  1  0  0  0  0
  3  4  1  0  0  0  0
  4  5  1  0  0  0  0
  5  6  1  0  0  0  0
  6  1  1  0  0  0  0
  4  7  1  0  0  0  0
  7  8  1  0  0  0  0
  8  9  1  0  0  0  0
  8 10  2  0  0  0  0
  9 11  1  0  0  0  0
 11 12  1  0  0  0  0
 12 13  1  0  0  0  0
 13 14  1  0  0  0  0
 11 15  1  0  0  0  0
 15 16  1  0  0  0  0
 14 16  1  0  0  0  0
 16 17  1  0  0  0  0
 12 17  1  0  0  0  0
M  END
> <Molecule Name>
543

> <CDD Number>
CDD-15953

> <Human_sEH_IC50_uM>
0.1

> <Mouse_sEH_IC50_uM>
0.05

$$$$

SketchEl molfile

 19 18  0  0  0  0  0  0  0  0999 V2000
    2.4249    0.0000    0.0000 C   0  0  0  0  0  0  0  0  0  0  0  0
    3.6373    0.7000    0.0000 C   0  0  0  0  0  0  0  0  0  0  0  0
    4.8497    0.0000    0.0000 C   0  0  0  0  0  0  0  0  0  0  0  0
    6.0622    0.7000    0.0000 C   0  0  0  0  0  0  0  0  0  0  0  0
    7.2746    0.0000    0.0000 C   0  0  0  0  0  0  0  0  0  0  0  0
    8.4870    0.7000    0.0000 C   0  0  0  0  0  0  0  0  0  0  0  0
    9.6995    0.0000    0.0000 C   0  0  0  0  0  0  0  0  0  0  0  0
   10.9119    0.7000    0.0000 C   0  0  0  0  0  0  0  0  0  0  0  0
   12.1244    0.0000    0.0000 C   0  0  0  0  0  0  0  0  0  0  0  0
   13.3368    0.7000    0.0000 C   0  0  0  0  0  0  0  0  0  0  0  0
   14.5492    0.0000    0.0000 N   0  0  0  0  0  0  0  0  0  0  0  0
   15.7617    0.7000    0.0000 C   0  0  0  0  0  0  0  0  0  0  0  0
   16.9741    0.0000    0.0000 O   0  0  0  0  0  0  0  0  0  0  0  0
   18.1865    0.7000    0.0000 C   0  0  0  0  0  0  0  0  0  0  0  0
   15.7617    2.1000    0.0000 O   0  0  0  0  0  0  0  0  0  0  0  0
   19.3990    0.0000    0.0000 C   0  0  0  0  0  0  0  0  0  0  0  0
    1.2124    0.7000    0.0000 C   0  0  0  0  0  0  0  0  0  0  0  0
    0.0000    0.0000    0.0000 C   0  0  0  0  0  0  0  0  0  0  0  0
   20.6114    0.7000    0.0000 C   0  0  0  0  0  0  0  0  0  0  0  0
  1  2  1  0  0  0  0
  2  3  1  0  0  0  0
  3  4  1  0  0  0  0
  4  5  1  0  0  0  0
  5  6  1  0  0  0  0
  6  7  1  0  0  0  0
  7  8  1  0  0  0  0
  8  9  1  0  0  0  0
  9 10  1  0  0  0  0
 10 11  1  0  0  0  0
 11 12  1  0  0  0  0
 12 13  1  0  0  0  0
 13 14  1  0  0  0  0
 12 15  2  0  0  0  0
 14 16  1  0  0  0  0
  1 17  1  0  0  0  0
 17 18  1  0  0  0  0
 16 19  1  0  0  0  0
M  END
> <Molecule Name>
541

> <CDD Number>
CDD-16078

> <Human_sEH_IC50_uM>
500.0

> <Mouse_sEH_IC50_uM>
500.0

$$$$

SketchEl molfile

 18 17  0  0  0  0  0  0  0  0999 V2000
    2.4249    0.0000    0.0000 C   0  0  0  0  0  0  0  0  0  0  0  0
    3.6373    0.7000    0.0000 C   0  0  0  0  0  0  0  0  0  0  0  0
    4.8497    0.0000    0.0000 C   0  0  0  0  0  0  0  0  0  0  0  0
    6.0622    0.7000    0.0000 C   0  0  0  0  0  0  0  0  0  0  0  0
    7.2746    0.0000    0.0000 C   0  0  0  0  0  0  0  0  0  0  0  0
    8.4870    0.7000    0.0000 C   0  0  0  0  0  0  0  0  0  0  0  0
    9.6995    0.0000    0.0000 C   0  0  0  0  0  0  0  0  0  0  0  0
   10.9119    0.7000    0.0000 C   0  0  0  0  0  0  0  0  0  0  0  0
   12.1244    0.0000    0.0000 C   0  0  0  0  0  0  0  0  0  0  0  0
   13.3368    0.7000    0.0000 C   0  0  0  0  0  0  0  0  0  0  0  0
   14.5492    0.0000    0.0000 O   0  0  0  0  0  0  0  0  0  0  0  0
   15.7617    0.7000    0.0000 C   0  0  0  0  0  0  0  0  0  0  0  0
   16.9741    0.0000    0.0000 N   0  0  0  0  0  0  0  0  0  0  0  0
   18.1865    0.7000    0.0000 C   0  0  0  0  0  0  0  0  0  0  0  0
   15.7617    2.1000    0.0000 O   0  0  0  0  0  0  0  0  0  0  0  0
   19.3990    0.0000    0.0000 C   0  0  0  0  0  0  0  0  0  0  0  0
    1.2124    0.7000    0.0000 C   0  0  0  0  0  0  0  0  0  0  0  0
    0.0000    0.0000    0.0000 C   0  0  0  0  0  0  0  0  0  0  0  0
  1  2  1  0  0  0  0
  2  3  1  0  0  0  0
  3  4  1  0  0  0  0
  4  5  1  0  0  0  0
  5  6  1  0  0  0  0
  6  7  1  0  0  0  0
  7  8  1  0  0  0  0
  8  9  1  0  0  0  0
  9 10  1  0  0  0  0
 10 11  1  0  0  0  0
 11 12  1  0  0  0  0
 12 13  1  0  0  0  0
 13 14  1  0  0  0  0
 12 15  2  0  0  0  0
 14 16  1  0  0  0  0
  1 17  1  0  0  0  0
 17 18  1  0  0  0  0
M  END
> <Molecule Name>
540

> <CDD Number>
CDD-16077

> <Human_sEH_IC50_uM>
500.0

> <Mouse_sEH_IC50_uM>
500.0

$$$$

SketchEl molfile

 20 19  0  0  0  0  0  0  0  0999 V2000
    1.2124    0.1721    0.0000 C   0  0  0  0  0  0  0  0  0  0  0  0
    2.4249    0.8721    0.0000 C   0  0  0  0  0  0  0  0  0  0  0  0
    3.6373    0.1721    0.0000 C   0  0  0  0  0  0  0  0  0  0  0  0
    4.8497    0.8721    0.0000 C   0  0  0  0  0  0  0  0  0  0  0  0
    6.0622    0.1721    0.0000 C   0  0  0  0  0  0  0  0  0  0  0  0
    7.2746    0.8721    0.0000 C   0  0  0  0  0  0  0  0  0  0  0  0
    8.4870    0.1721    0.0000 C   0  0  0  0  0  0  0  0  0  0  0  0
    9.6995    0.8721    0.0000 C   0  0  0  0  0  0  0  0  0  0  0  0
   10.9119    0.1721    0.0000 C   0  0  0  0  0  0  0  0  0  0  0  0
   12.1244    0.8721    0.0000 C   0  0  0  0  0  0  0  0  0  0  0  0
   13.3368    0.1721    0.0000 C   0  0  0  0  0  0  0  0  0  0  0  0
   14.5492    0.8721    0.0000 C   0  0  0  0  0  0  0  0  0  0  0  0
   15.7617    0.1721    0.0000 N   0  0  0  0  0  0  0  0  0  0  0  0
   16.7516    0.7728    0.0000 C   0  0  0  0  0  0  0  0  0  0  0  0
   17.9640    0.0728    0.0000 N   0  0  0  0  0  0  0  0  0  0  0  0
   16.7516    2.1728    0.0000 O   0  0  0  0  0  0  0  0  0  0  0  0
   18.9540    0.6734    0.0000 C   0  0  0  0  0  0  0  0  0  0  0  0
   20.1814    0.0000    0.0000 C   0  0  0  0  0  0  0  0  0  0  0  0
   21.3783    0.7262    0.0000 C   0  0  0  0  0  0  0  0  0  0  0  0
    0.0000    0.8721    0.0000 C   0  0  0  0  0  0  0  0  0  0  0  0
  1  2  1  0  0  0  0
  2  3  1  0  0  0  0
  3  4  1  0  0  0  0
  4  5  1  0  0  0  0
  5  6  1  0  0  0  0
  6  7  1  0  0  0  0
  7  8  1  0  0  0  0
  8  9  1  0  0  0  0
  9 10  1  0  0  0  0
 10 11  1  0  0  0  0
 11 12  1  0  0  0  0
 12 13  1  0  0  0  0
 13 14  1  0  0  0  0
 14 15  1  0  0  0  0
 14 16  2  0  0  0  0
 15 17  1  0  0  0  0
 17 18  1  0  0  0  0
 18 19  1  0  0  0  0
  1 20  1  0  0  0  0
M  END
> <Molecule Name>
539

> <CDD Number>
CDD-15857

> <Human_sEH_IC50_uM>
500.0

> <Mouse_sEH_IC50_uM>
100.0

$$$$

SketchEl molfile

 17 18  0  0  0  0  0  0  0  0999 V2000
    0.0000    0.8987    0.0000 C   0  0  0  0  0  0  0  0  0  0  0  0
    1.2124    0.1987    0.0000 C   0  0  0  0  0  0  0  0  0  0  0  0
    2.4249    0.8987    0.0000 C   0  0  0  0  0  0  0  0  0  0  0  0
    2.4249    2.2987    0.0000 C   0  0  0  0  0  0  0  0  0  0  0  0
    1.2124    2.9987    0.0000 C   0  0  0  0  0  0  0  0  0  0  0  0
    0.0000    2.2987    0.0000 C   0  0  0  0  0  0  0  0  0  0  0  0
    3.6373    0.1987    0.0000 N   0  0  0  0  0  0  0  0  0  0  0  0
    4.6273    0.7993    0.0000 C   0  0  0  0  0  0  0  0  0  0  0  0
    5.8397    0.0993    0.0000 N   0  0  0  0  0  0  0  0  0  0  0  0
    4.6273    2.1993    0.0000 O   0  0  0  0  0  0  0  0  0  0  0  0
    6.8296    0.7000    0.0000 C   0  0  0  0  0  0  0  0  0  0  0  0
    8.0421    0.0000    0.0000 C   0  0  0  0  0  0  0  0  0  0  0  0
    9.2545    0.7000    0.0000 C   0  0  0  0  0  0  0  0  0  0  0  0
    9.2545    2.1000    0.0000 C   0  0  0  0  0  0  0  0  0  0  0  0
    8.0421    2.8000    0.0000 C   0  0  0  0  0  0  0  0  0  0  0  0
    6.8296    2.1000    0.0000 C   0  0  0  0  0  0  0  0  0  0  0  0
   10.4669    2.8000    0.0000 C   0  0  0  0  0  0  0  0  0  0  0  0
  1  2  1  0  0  0  0
  2  3  1  0  0  0  0
  3  4  1  0  0  0  0
  4  5  1  0  0  0  0
  5  6  1  0  0  0  0
  6  1  1  0  0  0  0
  3  7  1  0  0  0  0
  7  8  1  0  0  0  0
  8  9  1  0  0  0  0
  8 10  2  0  0  0  0
  9 11  1  0  0  0  0
 11 12  1  0  0  0  0
 12 13  1  0  0  0  0
 13 14  1  0  0  0  0
 14 15  1  0  0  0  0
 15 16  1  0  0  0  0
 16 11  1  0  0  0  0
 14 17  1  0  0  0  0
M  END
> <Molecule Name>
538

> <CDD Number>
CDD-15941

> <Human_sEH_IC50_uM>
0.1

> <Mouse_sEH_IC50_uM>
0.05

$$$$

SketchEl molfile

 16 17  0  0  0  0  0  0  0  0999 V2000
    0.0000    0.7000    0.0000 C   0  0  0  0  0  0  0  0  0  0  0  0
    1.2124    0.0000    0.0000 C   0  0  0  0  0  0  0  0  0  0  0  0
    2.4249    0.7000    0.0000 C   0  0  0  0  0  0  0  0  0  0  0  0
    2.4249    2.1000    0.0000 C   0  0  0  0  0  0  0  0  0  0  0  0
    1.2124    2.8000    0.0000 C   0  0  0  0  0  0  0  0  0  0  0  0
    0.0000    2.1000    0.0000 C   0  0  0  0  0  0  0  0  0  0  0  0
    3.6373    2.8000    0.0000 C   0  0  0  0  0  0  0  0  0  0  0  0
    4.8497    2.1000    0.0000 N   0  0  0  0  0  0  0  0  0  0  0  0
    6.0622    2.8000    0.0000 C   0  0  0  0  0  0  0  0  0  0  0  0
    7.2746    2.1000    0.0000 C   0  0  0  0  0  0  0  0  0  0  0  0
    7.2746    0.7000    0.0000 C   0  0  0  0  0  0  0  0  0  0  0  0
    8.4870    0.0000    0.0000 C   0  0  0  0  0  0  0  0  0  0  0  0
    9.6995    0.7000    0.0000 C   0  0  0  0  0  0  0  0  0  0  0  0
    9.6995    2.1000    0.0000 C   0  0  0  0  0  0  0  0  0  0  0  0
    8.4870    2.8000    0.0000 C   0  0  0  0  0  0  0  0  0  0  0  0
    6.0622    4.2000    0.0000 O   0  0  0  0  0  0  0  0  0  0  0  0
  1  2  1  0  0  0  0
  2  3  1  0  0  0  0
  3  4  1  0  0  0  0
  4  5  1  0  0  0  0
  5  6  1  0  0  0  0
  6  1  1  0  0  0  0
  4  7  1  0  0  0  0
  7  8  1  0  0  0  0
  8  9  1  0  0  0  0
  9 10  1  0  0  0  0
 10 11  2  0  0  0  0
 11 12  1  0  0  0  0
 12 13  2  0  0  0  0
 13 14  1  0  0  0  0
 14 15  2  0  0  0  0
 15 10  1  0  0  0  0
  9 16  2  0  0  0  0
M  END
> <Molecule Name>
537

> <CDD Number>
CDD-16163

> <Human_sEH_IC50_uM>
31.0

> <Mouse_sEH_IC50_uM>
1.9

$$$$

SketchEl molfile

 15 16  0  0  0  0  0  0  0  0999 V2000
    0.0000    4.2000    0.0000 C   0  0  0  0  0  0  0  0  0  0  0  0
    0.0000    2.8000    0.0000 C   0  0  0  0  0  0  0  0  0  0  0  0
    1.2124    2.1000    0.0000 C   0  0  0  0  0  0  0  0  0  0  0  0
    2.4249    2.8000    0.0000 C   0  0  0  0  0  0  0  0  0  0  0  0
    2.4249    4.2000    0.0000 C   0  0  0  0  0  0  0  0  0  0  0  0
    1.2124    4.9000    0.0000 C   0  0  0  0  0  0  0  0  0  0  0  0
    3.6373    2.1000    0.0000 N   0  0  0  0  0  0  0  0  0  0  0  0
    4.8497    2.8000    0.0000 C   0  0  0  0  0  0  0  0  0  0  0  0
    6.0622    2.1000    0.0000 C   0  0  0  0  0  0  0  0  0  0  0  0
    4.8497    4.2000    0.0000 O   0  0  0  0  0  0  0  0  0  0  0  0
    6.0622    0.7000    0.0000 C   0  0  0  0  0  0  0  0  0  0  0  0
    7.2746    0.0000    0.0000 C   0  0  0  0  0  0  0  0  0  0  0  0
    8.4870    0.7000    0.0000 C   0  0  0  0  0  0  0  0  0  0  0  0
    8.4870    2.1000    0.0000 C   0  0  0  0  0  0  0  0  0  0  0  0
    7.2746    2.8000    0.0000 C   0  0  0  0  0  0  0  0  0  0  0  0
  1  2  1  0  0  0  0
  2  3  1  0  0  0  0
  3  4  1  0  0  0  0
  4  5  1  0  0  0  0
  5  6  1  0  0  0  0
  6  1  1  0  0  0  0
  4  7  1  0  0  0  0
  7  8  1  0  0  0  0
  8  9  1  0  0  0  0
  8 10  2  0  0  0  0
  9 11  2  0  0  0  0
 11 12  1  0  0  0  0
 12 13  2  0  0  0  0
 13 14  1  0  0  0  0
 14 15  2  0  0  0  0
 15  9  1  0  0  0  0
M  END
> <Molecule Name>
536

> <CDD Number>
CDD-16154

> <Human_sEH_IC50_uM>
41.0

> <Mouse_sEH_IC50_uM>
21.0

$$$$

SketchEl molfile

 17 18  0  0  0  0  0  0  0  0999 V2000
    2.4249    2.1000    0.0000 C   0  0  0  0  0  0  0  0  0  0  0  0
    3.6373    2.8000    0.0000 C   0  0  0  0  0  0  0  0  0  0  0  0
    4.8497    2.1000    0.0000 N   0  0  0  0  0  0  0  0  0  0  0  0
    3.6373    4.2000    0.0000 O   0  0  0  0  0  0  0  0  0  0  0  0
    6.0622    2.8000    0.0000 C   0  0  0  0  0  0  0  0  0  0  0  0
    7.2746    2.1000    0.0000 C   0  0  0  0  0  0  0  0  0  0  0  0
    1.2124    2.8000    0.0000 C   0  0  0  0  0  0  0  0  0  0  0  0
    0.0000    2.1000    0.0000 C   0  0  0  0  0  0  0  0  0  0  0  0
    0.0000    0.7000    0.0000 C   0  0  0  0  0  0  0  0  0  0  0  0
    1.2124    0.0000    0.0000 C   0  0  0  0  0  0  0  0  0  0  0  0
    2.4249    0.7000    0.0000 C   0  0  0  0  0  0  0  0  0  0  0  0
    8.4870    2.8000    0.0000 C   0  0  0  0  0  0  0  0  0  0  0  0
    9.6995    2.1000    0.0000 C   0  0  0  0  0  0  0  0  0  0  0  0
   10.9119    2.8000    0.0000 C   0  0  0  0  0  0  0  0  0  0  0  0
   10.9119    4.2000    0.0000 C   0  0  0  0  0  0  0  0  0  0  0  0
    9.6995    4.9000    0.0000 C   0  0  0  0  0  0  0  0  0  0  0  0
    8.4870    4.2000    0.0000 C   0  0  0  0  0  0  0  0  0  0  0  0
  1  2  1  0  0  0  0
  2  3  1  0  0  0  0
  2  4  2  0  0  0  0
  3  5  1  0  0  0  0
  5  6  1  0  0  0  0
  1  7  1  0  0  0  0
  7  8  1  0  0  0  0
  8  9  1  0  0  0  0
  9 10  1  0  0  0  0
 10 11  1  0  0  0  0
 11  1  1  0  0  0  0
  6 12  1  0  0  0  0
 12 13  2  0  0  0  0
 13 14  1  0  0  0  0
 14 15  2  0  0  0  0
 15 16  1  0  0  0  0
 16 17  2  0  0  0  0
 17 12  1  0  0  0  0
M  END
> <Molecule Name>
535

> <CDD Number>
CDD-16161

> <Human_sEH_IC50_uM>
8.3

> <Mouse_sEH_IC50_uM>
17.0

$$$$

SketchEl molfile

 19 18  0  0  0  0  0  0  0  0999 V2000
    0.0000    1.3523    0.0000 C   0  0  0  0  0  0  0  0  0  0  0  0
    1.2124    2.0523    0.0000 C   0  0  0  0  0  0  0  0  0  0  0  0
    2.4249    1.3523    0.0000 C   0  0  0  0  0  0  0  0  0  0  0  0
    3.6373    2.0523    0.0000 C   0  0  0  0  0  0  0  0  0  0  0  0
    4.8497    1.3523    0.0000 C   0  0  0  0  0  0  0  0  0  0  0  0
    6.0622    2.0523    0.0000 C   0  0  0  0  0  0  0  0  0  0  0  0
    7.2746    1.3523    0.0000 C   0  0  0  0  0  0  0  0  0  0  0  0
    8.4870    2.0523    0.0000 C   0  0  0  0  0  0  0  0  0  0  0  0
    9.6995    1.3523    0.0000 C   0  0  0  0  0  0  0  0  0  0  0  0
   10.9119    2.0523    0.0000 C   0  0  0  0  0  0  0  0  0  0  0  0
   12.1244    1.3523    0.0000 C   0  0  0  0  0  0  0  0  0  0  0  0
   13.3368    2.0523    0.0000 C   0  0  0  0  0  0  0  0  0  0  0  0
   14.5492    1.3523    0.0000 N   0  0  0  0  0  0  0  0  0  0  0  0
   15.7617    2.0523    0.0000 C   0  0  0  0  0  0  0  0  0  0  0  0
   16.9741    1.3523    0.0000 C   0  0  0  0  0  0  0  0  0  0  0  0
   15.7617    3.4523    0.0000 O   0  0  0  0  0  0  0  0  0  0  0  0
   18.3264    1.7146    0.0000 F   0  0  0  0  0  0  0  0  0  0  0  0
   17.3364    0.0000    0.0000 F   0  0  0  0  0  0  0  0  0  0  0  0
   18.1865    0.6523    0.0000 F   0  0  0  0  0  0  0  0  0  0  0  0
  1  2  1  0  0  0  0
  2  3  1  0  0  0  0
  3  4  1  0  0  0  0
  4  5  1  0  0  0  0
  5  6  1  0  0  0  0
  6  7  1  0  0  0  0
  7  8  1  0  0  0  0
  8  9  1  0  0  0  0
  9 10  1  0  0  0  0
 10 11  1  0  0  0  0
 11 12  1  0  0  0  0
 12 13  1  0  0  0  0
 13 14  1  0  0  0  0
 14 15  1  0  0  0  0
 14 16  2  0  0  0  0
 15 17  1  0  0  0  0
 15 18  1  0  0  0  0
 15 19  1  0  0  0  0
M  END
> <Molecule Name>
534

> <CDD Number>
CDD-16112

> <Human_sEH_IC50_uM>
500.0

> <Mouse_sEH_IC50_uM>
500.0

$$$$

SketchEl molfile

 15 16  0  0  0  0  0  0  0  0999 V2000
    0.0000    2.1000    0.0000 C   0  0  0  0  0  0  0  0  0  0  0  0
    0.0000    0.7000    0.0000 C   0  0  0  0  0  0  0  0  0  0  0  0
    1.2124    0.0000    0.0000 C   0  0  0  0  0  0  0  0  0  0  0  0
    2.4249    0.7000    0.0000 C   0  0  0  0  0  0  0  0  0  0  0  0
    2.4249    2.1000    0.0000 C   0  0  0  0  0  0  0  0  0  0  0  0
    1.2124    2.8000    0.0000 C   0  0  0  0  0  0  0  0  0  0  0  0
    3.6373    0.0000    0.0000 N   0  0  0  0  0  0  0  0  0  0  0  0
    4.8497    0.7000    0.0000 C   0  0  0  0  0  0  0  0  0  0  0  0
    6.0622    0.0000    0.0000 N   0  0  0  0  0  0  0  0  0  0  0  0
    4.8497    2.1000    0.0000 O   0  0  0  0  0  0  0  0  0  0  0  0
    7.0521    0.6007    0.0000 C   0  0  0  0  0  0  0  0  0  0  0  0
    7.4145    1.9530    0.0000 N   0  0  0  0  0  0  0  0  0  0  0  0
    8.4044    0.2383    0.0000 N   0  0  0  0  0  0  0  0  0  0  0  0
    9.3944    1.2283    0.0000 N   0  0  0  0  0  0  0  0  0  0  0  0
    8.7668    2.3153    0.0000 N   0  0  0  0  0  0  0  0  0  0  0  0
  1  2  1  0  0  0  0
  2  3  1  0  0  0  0
  3  4  1  0  0  0  0
  4  5  1  0  0  0  0
  5  6  1  0  0  0  0
  6  1  1  0  0  0  0
  4  7  1  0  0  0  0
  7  8  1  0  0  0  0
  8  9  1  0  0  0  0
  8 10  2  0  0  0  0
  9 11  1  0  0  0  0
 11 12  2  0  0  0  0
 11 13  1  0  0  0  0
 13 14  1  0  0  0  0
 12 15  1  0  0  0  0
 15 14  2  0  0  0  0
M  END
> <Molecule Name>
533

> <CDD Number>
CDD-15947

> <Human_sEH_IC50_uM>
0.1

> <Mouse_sEH_IC50_uM>
0.05

$$$$

SketchEl molfile

 20 19  0  0  0  0  0  0  0  0999 V2000
    0.0000    0.1721    0.0000 C   0  0  0  0  0  0  0  0  0  0  0  0
    1.2124    0.8721    0.0000 C   0  0  0  0  0  0  0  0  0  0  0  0
    2.4249    0.1721    0.0000 C   0  0  0  0  0  0  0  0  0  0  0  0
    3.6373    0.8721    0.0000 C   0  0  0  0  0  0  0  0  0  0  0  0
    4.8497    0.1721    0.0000 C   0  0  0  0  0  0  0  0  0  0  0  0
    6.0622    0.8721    0.0000 C   0  0  0  0  0  0  0  0  0  0  0  0
    7.2746    0.1721    0.0000 C   0  0  0  0  0  0  0  0  0  0  0  0
    8.4870    0.8721    0.0000 C   0  0  0  0  0  0  0  0  0  0  0  0
    9.6995    0.1721    0.0000 C   0  0  0  0  0  0  0  0  0  0  0  0
   10.9119    0.8721    0.0000 C   0  0  0  0  0  0  0  0  0  0  0  0
   12.1244    0.1721    0.0000 C   0  0  0  0  0  0  0  0  0  0  0  0
   13.3368    0.8721    0.0000 C   0  0  0  0  0  0  0  0  0  0  0  0
   14.5492    0.1721    0.0000 N   0  0  0  0  0  0  0  0  0  0  0  0
   15.5392    0.7728    0.0000 C   0  0  0  0  0  0  0  0  0  0  0  0
   16.7516    0.0728    0.0000 N   0  0  0  0  0  0  0  0  0  0  0  0
   15.5392    2.1728    0.0000 O   0  0  0  0  0  0  0  0  0  0  0  0
   17.7416    0.6734    0.0000 C   0  0  0  0  0  0  0  0  0  0  0  0
   18.9690    0.0000    0.0000 C   0  0  0  0  0  0  0  0  0  0  0  0
   20.1659    0.7262    0.0000 C   0  0  0  0  0  0  0  0  0  0  0  0
   21.3933    0.0528    0.0000 C   0  0  0  0  0  0  0  0  0  0  0  0
  1  2  1  0  0  0  0
  2  3  1  0  0  0  0
  3  4  1  0  0  0  0
  4  5  1  0  0  0  0
  5  6  1  0  0  0  0
  6  7  1  0  0  0  0
  7  8  1  0  0  0  0
  8  9  1  0  0  0  0
  9 10  1  0  0  0  0
 10 11  1  0  0  0  0
 11 12  1  0  0  0  0
 12 13  1  0  0  0  0
 13 14  1  0  0  0  0
 14 15  1  0  0  0  0
 14 16  2  0  0  0  0
 15 17  1  0  0  0  0
 17 18  1  0  0  0  0
 18 19  1  0  0  0  0
 19 20  1  0  0  0  0
M  END
> <Molecule Name>
531

> <CDD Number>
CDD-15848

> <Human_sEH_IC50_uM>
0.64

> <Mouse_sEH_IC50_uM>
0.14

$$$$

SketchEl molfile

 22 22  0  0  0  0  0  0  0  0999 V2000
    1.2124    2.8000    0.0000 C   0  0  0  0  0  0  0  0  0  0  0  0
    0.0000    2.1000    0.0000 C   0  0  0  0  0  0  0  0  0  0  0  0
    0.0000    0.7000    0.0000 C   0  0  0  0  0  0  0  0  0  0  0  0
    1.2124    0.0000    0.0000 C   0  0  0  0  0  0  0  0  0  0  0  0
    2.4249    0.7000    0.0000 C   0  0  0  0  0  0  0  0  0  0  0  0
    2.4249    2.1000    0.0000 C   0  0  0  0  0  0  0  0  0  0  0  0
    3.6373    0.0000    0.0000 N   0  0  0  0  0  0  0  0  0  0  0  0
    4.8497    0.7000    0.0000 C   0  0  0  0  0  0  0  0  0  0  0  0
    6.0622    0.0000    0.0000 C   0  0  0  0  0  0  0  0  0  0  0  0
    4.8497    2.1000    0.0000 O   0  0  0  0  0  0  0  0  0  0  0  0
    7.2746    0.7000    0.0000 C   0  0  0  0  0  0  0  0  0  0  0  0
    8.4870    0.0000    0.0000 C   0  0  0  0  0  0  0  0  0  0  0  0
    9.6995    0.7000    0.0000 C   0  0  0  0  0  0  0  0  0  0  0  0
   10.9119    0.0000    0.0000 C   0  0  0  0  0  0  0  0  0  0  0  0
   12.1244    0.7000    0.0000 C   0  0  0  0  0  0  0  0  0  0  0  0
   13.3368    0.0000    0.0000 C   0  0  0  0  0  0  0  0  0  0  0  0
   14.5492    0.7000    0.0000 C   0  0  0  0  0  0  0  0  0  0  0  0
   15.7617    0.0000    0.0000 C   0  0  0  0  0  0  0  0  0  0  0  0
   16.9741    0.7000    0.0000 C   0  0  0  0  0  0  0  0  0  0  0  0
   18.1865    0.0000    0.0000 C   0  0  0  0  0  0  0  0  0  0  0  0
   19.3990    0.7000    0.0000 C   0  0  0  0  0  0  0  0  0  0  0  0
   20.6114    0.0000    0.0000 C   0  0  0  0  0  0  0  0  0  0  0  0
  1  2  1  0  0  0  0
  2  3  1  0  0  0  0
  3  4  1  0  0  0  0
  4  5  1  0  0  0  0
  5  6  1  0  0  0  0
  6  1  1  0  0  0  0
  5  7  1  0  0  0  0
  7  8  1  0  0  0  0
  8  9  1  0  0  0  0
  8 10  2  0  0  0  0
  9 11  1  0  0  0  0
 11 12  1  0  0  0  0
 12 13  1  0  0  0  0
 13 14  1  0  0  0  0
 14 15  1  0  0  0  0
 15 16  1  0  0  0  0
 16 17  1  0  0  0  0
 17 18  1  0  0  0  0
 18 19  1  0  0  0  0
 19 20  1  0  0  0  0
 20 21  1  0  0  0  0
 21 22  1  0  0  0  0
M  END
> <Molecule Name>
515

> <CDD Number>
CDD-16150

> <Mouse_sEH_IC50_uM>
0.19

$$$$

SketchEl molfile

 22 22  0  0  0  0  0  0  0  0999 V2000
    1.2124    2.8000    0.0000 C   0  0  0  0  0  0  0  0  0  0  0  0
    0.0000    2.1000    0.0000 C   0  0  0  0  0  0  0  0  0  0  0  0
    0.0000    0.7000    0.0000 C   0  0  0  0  0  0  0  0  0  0  0  0
    1.2124    0.0000    0.0000 C   0  0  0  0  0  0  0  0  0  0  0  0
    2.4249    0.7000    0.0000 C   0  0  0  0  0  0  0  0  0  0  0  0
    2.4249    2.1000    0.0000 C   0  0  0  0  0  0  0  0  0  0  0  0
    3.6373    0.0000    0.0000 C   0  0  0  0  0  0  0  0  0  0  0  0
    4.8497    0.7000    0.0000 C   0  0  0  0  0  0  0  0  0  0  0  0
    6.0622    0.0000    0.0000 N   0  0  0  0  0  0  0  0  0  0  0  0
    4.8497    2.1000    0.0000 O   0  0  0  0  0  0  0  0  0  0  0  0
    7.2746    0.7000    0.0000 C   0  0  0  0  0  0  0  0  0  0  0  0
    8.4870    0.0000    0.0000 C   0  0  0  0  0  0  0  0  0  0  0  0
    9.6995    0.7000    0.0000 C   0  0  0  0  0  0  0  0  0  0  0  0
   10.9119    0.0000    0.0000 C   0  0  0  0  0  0  0  0  0  0  0  0
   12.1244    0.7000    0.0000 C   0  0  0  0  0  0  0  0  0  0  0  0
   13.3368    0.0000    0.0000 C   0  0  0  0  0  0  0  0  0  0  0  0
   14.5492    0.7000    0.0000 C   0  0  0  0  0  0  0  0  0  0  0  0
   15.7617    0.0000    0.0000 C   0  0  0  0  0  0  0  0  0  0  0  0
   16.9741    0.7000    0.0000 C   0  0  0  0  0  0  0  0  0  0  0  0
   18.1865    0.0000    0.0000 C   0  0  0  0  0  0  0  0  0  0  0  0
   19.3990    0.7000    0.0000 C   0  0  0  0  0  0  0  0  0  0  0  0
   20.6114    0.0000    0.0000 C   0  0  0  0  0  0  0  0  0  0  0  0
  1  2  1  0  0  0  0
  2  3  1  0  0  0  0
  3  4  1  0  0  0  0
  4  5  1  0  0  0  0
  5  6  1  0  0  0  0
  6  1  1  0  0  0  0
  5  7  1  0  0  0  0
  7  8  1  0  0  0  0
  8  9  1  0  0  0  0
  8 10  2  0  0  0  0
  9 11  1  0  0  0  0
 11 12  1  0  0  0  0
 12 13  1  0  0  0  0
 13 14  1  0  0  0  0
 14 15  1  0  0  0  0
 15 16  1  0  0  0  0
 16 17  1  0  0  0  0
 17 18  1  0  0  0  0
 18 19  1  0  0  0  0
 19 20  1  0  0  0  0
 20 21  1  0  0  0  0
 21 22  1  0  0  0  0
M  END
> <Molecule Name>
514

> <CDD Number>
CDD-16149

> <Mouse_sEH_IC50_uM>
0.27

$$$$

SketchEl molfile

 12 11  0  0  0  0  0  0  0  0999 V2000
    0.0000    0.1721    0.0000 C   0  0  0  0  0  0  0  0  0  0  0  0
    1.2124    0.8721    0.0000 C   0  0  0  0  0  0  0  0  0  0  0  0
    2.4249    0.1721    0.0000 C   0  0  0  0  0  0  0  0  0  0  0  0
    3.6373    0.8721    0.0000 C   0  0  0  0  0  0  0  0  0  0  0  0
    4.8497    0.1721    0.0000 N   0  0  0  0  0  0  0  0  0  0  0  0
    5.8397    0.7728    0.0000 C   0  0  0  0  0  0  0  0  0  0  0  0
    7.0521    0.0728    0.0000 N   0  0  0  0  0  0  0  0  0  0  0  0
    5.8397    2.1728    0.0000 O   0  0  0  0  0  0  0  0  0  0  0  0
    8.0421    0.6734    0.0000 C   0  0  0  0  0  0  0  0  0  0  0  0
    9.2695    0.0000    0.0000 C   0  0  0  0  0  0  0  0  0  0  0  0
   10.4664    0.7262    0.0000 C   0  0  0  0  0  0  0  0  0  0  0  0
   11.6938    0.0528    0.0000 C   0  0  0  0  0  0  0  0  0  0  0  0
  1  2  1  0  0  0  0
  2  3  1  0  0  0  0
  3  4  1  0  0  0  0
  4  5  1  0  0  0  0
  5  6  1  0  0  0  0
  6  7  1  0  0  0  0
  6  8  2  0  0  0  0
  7  9  1  0  0  0  0
  9 10  1  0  0  0  0
 10 11  1  0  0  0  0
 11 12  1  0  0  0  0
M  END
> <Molecule Name>
513

> <CDD Number>
CDD-15797

> <Human_sEH_IC50_uM>
60.0

> <Mouse_sEH_IC50_uM>
31.4

$$$$

SketchEl molfile

 16 17  0  0  0  0  0  0  0  0999 V2000
    0.0000    2.1000    0.0000 C   0  0  0  0  0  0  0  0  0  0  0  0
    0.0000    0.7000    0.0000 C   0  0  0  0  0  0  0  0  0  0  0  0
    1.2124    0.0000    0.0000 C   0  0  0  0  0  0  0  0  0  0  0  0
    2.4249    0.7000    0.0000 C   0  0  0  0  0  0  0  0  0  0  0  0
    2.4249    2.1000    0.0000 C   0  0  0  0  0  0  0  0  0  0  0  0
    1.2124    2.8000    0.0000 C   0  0  0  0  0  0  0  0  0  0  0  0
    3.6373    2.8000    0.0000 C   0  0  0  0  0  0  0  0  0  0  0  0
    4.8497    2.1000    0.0000 N   0  0  0  0  0  0  0  0  0  0  0  0
    3.6373    4.2000    0.0000 O   0  0  0  0  0  0  0  0  0  0  0  0
    6.0622    2.8000    0.0000 C   0  0  0  0  0  0  0  0  0  0  0  0
    7.2746    2.1000    0.0000 C   0  0  0  0  0  0  0  0  0  0  0  0
    7.2746    0.7000    0.0000 C   0  0  0  0  0  0  0  0  0  0  0  0
    8.4870    0.0000    0.0000 C   0  0  0  0  0  0  0  0  0  0  0  0
    9.6995    0.7000    0.0000 C   0  0  0  0  0  0  0  0  0  0  0  0
    9.6995    2.1000    0.0000 C   0  0  0  0  0  0  0  0  0  0  0  0
    8.4870    2.8000    0.0000 C   0  0  0  0  0  0  0  0  0  0  0  0
  1  2  2  0  0  0  0
  2  3  1  0  0  0  0
  3  4  2  0  0  0  0
  4  5  1  0  0  0  0
  5  6  2  0  0  0  0
  6  1  1  0  0  0  0
  5  7  1  0  0  0  0
  7  8  1  0  0  0  0
  7  9  2  0  0  0  0
  8 10  1  0  0  0  0
 10 11  1  0  0  0  0
 11 12  2  0  0  0  0
 12 13  1  0  0  0  0
 13 14  2  0  0  0  0
 14 15  1  0  0  0  0
 15 16  2  0  0  0  0
 16 11  1  0  0  0  0
M  END
> <Molecule Name>
512

> <CDD Number>
CDD-16168

> <Human_sEH_IC50_uM>
500.0

> <Mouse_sEH_IC50_uM>
88.0

$$$$

SketchEl molfile

  9  9  0  0  0  0  0  0  0  0999 V2000
    1.2124    2.8000    0.0000 C   0  0  0  0  0  0  0  0  0  0  0  0
    0.0000    2.1000    0.0000 C   0  0  0  0  0  0  0  0  0  0  0  0
    0.0000    0.7000    0.0000 C   0  0  0  0  0  0  0  0  0  0  0  0
    1.2124    0.0000    0.0000 C   0  0  0  0  0  0  0  0  0  0  0  0
    2.4249    0.7000    0.0000 C   0  0  0  0  0  0  0  0  0  0  0  0
    2.4249    2.1000    0.0000 C   0  0  0  0  0  0  0  0  0  0  0  0
    3.6373    2.8000    0.0000 C   0  0  0  0  0  0  0  0  0  0  0  0
    4.8497    2.1000    0.0000 N   0  0  0  0  0  0  0  0  0  0  0  0
    3.6373    4.2000    0.0000 O   0  0  0  0  0  0  0  0  0  0  0  0
  1  2  1  0  0  0  0
  2  3  1  0  0  0  0
  3  4  1  0  0  0  0
  4  5  1  0  0  0  0
  5  6  1  0  0  0  0
  6  1  1  0  0  0  0
  6  7  1  0  0  0  0
  7  8  1  0  0  0  0
  7  9  2  0  0  0  0
M  END
> <Molecule Name>
510

> <CDD Number>
CDD-16147

> <Human_sEH_IC50_uM>
500.0

> <Mouse_sEH_IC50_uM>
500.0

$$$$

SketchEl molfile

 15 15  0  0  0  0  0  0  0  0999 V2000
    0.0000    0.8987    0.0000 C   0  0  0  0  0  0  0  0  0  0  0  0
    1.2124    0.1987    0.0000 C   0  0  0  0  0  0  0  0  0  0  0  0
    2.4249    0.8987    0.0000 C   0  0  0  0  0  0  0  0  0  0  0  0
    2.4249    2.2987    0.0000 C   0  0  0  0  0  0  0  0  0  0  0  0
    1.2124    2.9987    0.0000 C   0  0  0  0  0  0  0  0  0  0  0  0
    0.0000    2.2987    0.0000 C   0  0  0  0  0  0  0  0  0  0  0  0
    3.6373    0.1987    0.0000 N   0  0  0  0  0  0  0  0  0  0  0  0
    4.6273    0.7993    0.0000 C   0  0  0  0  0  0  0  0  0  0  0  0
    5.8397    0.0993    0.0000 N   0  0  0  0  0  0  0  0  0  0  0  0
    4.6273    2.1993    0.0000 O   0  0  0  0  0  0  0  0  0  0  0  0
    6.8296    0.7000    0.0000 C   0  0  0  0  0  0  0  0  0  0  0  0
    8.0421    0.0000    0.0000 C   0  0  0  0  0  0  0  0  0  0  0  0
    9.2545    0.7000    0.0000 C   0  0  0  0  0  0  0  0  0  0  0  0
   10.4669    0.0000    0.0000 C   0  0  0  0  0  0  0  0  0  0  0  0
   11.6794    0.7000    0.0000 C   0  0  0  0  0  0  0  0  0  0  0  0
  1  2  1  0  0  0  0
  2  3  1  0  0  0  0
  3  4  1  0  0  0  0
  4  5  1  0  0  0  0
  5  6  1  0  0  0  0
  6  1  1  0  0  0  0
  3  7  1  0  0  0  0
  7  8  1  0  0  0  0
  8  9  1  0  0  0  0
  8 10  2  0  0  0  0
  9 11  1  0  0  0  0
 11 12  1  0  0  0  0
 12 13  1  0  0  0  0
 13 14  1  0  0  0  0
 14 15  1  0  0  0  0
M  END
> <Molecule Name>
509

> <CDD Number>
CDD-15917

> <Human_sEH_IC50_uM>
0.92

> <Mouse_sEH_IC50_uM>
0.06

$$$$

SketchEl molfile

 17 17  0  0  0  0  0  0  0  0999 V2000
    0.0000    0.8987    0.0000 C   0  0  0  0  0  0  0  0  0  0  0  0
    1.2124    0.1987    0.0000 C   0  0  0  0  0  0  0  0  0  0  0  0
    2.4249    0.8987    0.0000 C   0  0  0  0  0  0  0  0  0  0  0  0
    2.4249    2.2987    0.0000 C   0  0  0  0  0  0  0  0  0  0  0  0
    1.2124    2.9987    0.0000 C   0  0  0  0  0  0  0  0  0  0  0  0
    0.0000    2.2987    0.0000 C   0  0  0  0  0  0  0  0  0  0  0  0
    3.6373    0.1987    0.0000 N   0  0  0  0  0  0  0  0  0  0  0  0
    4.6273    0.7993    0.0000 C   0  0  0  0  0  0  0  0  0  0  0  0
    5.8397    0.0993    0.0000 N   0  0  0  0  0  0  0  0  0  0  0  0
    4.6273    2.1993    0.0000 O   0  0  0  0  0  0  0  0  0  0  0  0
    6.8296    0.7000    0.0000 C   0  0  0  0  0  0  0  0  0  0  0  0
    8.0421    0.0000    0.0000 C   0  0  0  0  0  0  0  0  0  0  0  0
    9.2545    0.7000    0.0000 C   0  0  0  0  0  0  0  0  0  0  0  0
   10.4669    0.0000    0.0000 C   0  0  0  0  0  0  0  0  0  0  0  0
   11.6794    0.7000    0.0000 C   0  0  0  0  0  0  0  0  0  0  0  0
   12.8918    0.0000    0.0000 C   0  0  0  0  0  0  0  0  0  0  0  0
   14.1043    0.7000    0.0000 C   0  0  0  0  0  0  0  0  0  0  0  0
  1  2  1  0  0  0  0
  2  3  1  0  0  0  0
  3  4  1  0  0  0  0
  4  5  1  0  0  0  0
  5  6  1  0  0  0  0
  6  1  1  0  0  0  0
  3  7  1  0  0  0  0
  7  8  1  0  0  0  0
  8  9  1  0  0  0  0
  8 10  2  0  0  0  0
  9 11  1  0  0  0  0
 11 12  1  0  0  0  0
 12 13  1  0  0  0  0
 13 14  1  0  0  0  0
 14 15  1  0  0  0  0
 15 16  1  0  0  0  0
 16 17  1  0  0  0  0
M  END
> <Molecule Name>
508

> <CDD Number>
CDD-15922

> <Human_sEH_IC50_uM>
0.1

> <Mouse_sEH_IC50_uM>
0.05

$$$$

SketchEl molfile

 17 18  0  0  0  0  0  0  0  0999 V2000
    2.4249    2.1000    0.0000 C   0  0  0  0  0  0  0  0  0  0  0  0
    3.6373    2.8000    0.0000 C   0  0  0  0  0  0  0  0  0  0  0  0
    4.8497    2.1000    0.0000 N   0  0  0  0  0  0  0  0  0  0  0  0
    3.6373    4.2000    0.0000 O   0  0  0  0  0  0  0  0  0  0  0  0
    5.8397    2.7007    0.0000 C   0  0  0  0  0  0  0  0  0  0  0  0
    7.0521    2.0007    0.0000 C   0  0  0  0  0  0  0  0  0  0  0  0
    8.2646    2.7007    0.0000 C   0  0  0  0  0  0  0  0  0  0  0  0
    8.2646    4.1007    0.0000 C   0  0  0  0  0  0  0  0  0  0  0  0
    7.0521    4.8007    0.0000 C   0  0  0  0  0  0  0  0  0  0  0  0
    5.8397    4.1007    0.0000 C   0  0  0  0  0  0  0  0  0  0  0  0
    7.0521    0.6007    0.0000 C   0  0  0  0  0  0  0  0  0  0  0  0
    4.6273    4.8007    0.0000 C   0  0  0  0  0  0  0  0  0  0  0  0
    1.2124    2.8000    0.0000 C   0  0  0  0  0  0  0  0  0  0  0  0
    0.0000    2.1000    0.0000 C   0  0  0  0  0  0  0  0  0  0  0  0
    0.0000    0.7000    0.0000 C   0  0  0  0  0  0  0  0  0  0  0  0
    1.2124    0.0000    0.0000 C   0  0  0  0  0  0  0  0  0  0  0  0
    2.4249    0.7000    0.0000 C   0  0  0  0  0  0  0  0  0  0  0  0
  1  2  1  0  0  0  0
  2  3  1  0  0  0  0
  2  4  2  0  0  0  0
  3  5  1  0  0  0  0
  5  6  2  0  0  0  0
  6  7  1  0  0  0  0
  7  8  2  0  0  0  0
  8  9  1  0  0  0  0
  9 10  2  0  0  0  0
 10  5  1  0  0  0  0
  6 11  1  0  0  0  0
 10 12  1  0  0  0  0
  1 13  1  0  0  0  0
 13 14  1  0  0  0  0
 14 15  1  0  0  0  0
 15 16  1  0  0  0  0
 16 17  1  0  0  0  0
 17  1  1  0  0  0  0
M  END
> <Molecule Name>
507

> <CDD Number>
CDD-16159

> <Human_sEH_IC50_uM>
500.0

> <Mouse_sEH_IC50_uM>
280.0

$$$$

SketchEl molfile

 22 21  0  0  0  0  0  0  0  0999 V2000
    0.0000    0.0000    0.0000 C   0  0  0  0  0  0  0  0  0  0  0  0
    1.2124    0.7000    0.0000 C   0  0  0  0  0  0  0  0  0  0  0  0
    2.4249    0.0000    0.0000 N   0  0  0  0  0  0  0  0  0  0  0  0
    1.2124    2.1000    0.0000 O   0  0  0  0  0  0  0  0  0  0  0  0
    3.6373    0.7000    0.0000 C   0  0  0  0  0  0  0  0  0  0  0  0
    4.8497    0.0000    0.0000 C   0  0  0  0  0  0  0  0  0  0  0  0
    6.0622    0.7000    0.0000 C   0  0  0  0  0  0  0  0  0  0  0  0
    7.2746    0.0000    0.0000 C   0  0  0  0  0  0  0  0  0  0  0  0
    8.4870    0.7000    0.0000 C   0  0  0  0  0  0  0  0  0  0  0  0
    9.6995    0.0000    0.0000 C   0  0  0  0  0  0  0  0  0  0  0  0
   10.9119    0.7000    0.0000 C   0  0  0  0  0  0  0  0  0  0  0  0
   12.1244    0.0000    0.0000 C   0  0  0  0  0  0  0  0  0  0  0  0
   13.3368    0.7000    0.0000 C   0  0  0  0  0  0  0  0  0  0  0  0
   14.7368    0.7000    0.0000 C   0  0  0  0  0  0  0  0  0  0  0  0
   15.9492    0.0000    0.0000 C   0  0  0  0  0  0  0  0  0  0  0  0
   17.1617    0.7000    0.0000 C   0  0  0  0  0  0  0  0  0  0  0  0
   18.3741    0.0000    0.0000 C   0  0  0  0  0  0  0  0  0  0  0  0
   19.5865    0.7000    0.0000 C   0  0  0  0  0  0  0  0  0  0  0  0
   20.7990    0.0000    0.0000 C   0  0  0  0  0  0  0  0  0  0  0  0
   22.0114    0.7000    0.0000 C   0  0  0  0  0  0  0  0  0  0  0  0
   23.2238    0.0000    0.0000 C   0  0  0  0  0  0  0  0  0  0  0  0
   24.4363    0.7000    0.0000 C   0  0  0  0  0  0  0  0  0  0  0  0
  1  2  1  0  0  0  0
  2  3  1  0  0  0  0
  2  4  2  0  0  0  0
  3  5  1  0  0  0  0
  5  6  1  0  0  0  0
  6  7  1  0  0  0  0
  7  8  1  0  0  0  0
  8  9  1  0  0  0  0
  9 10  1  0  0  0  0
 10 11  1  0  0  0  0
 11 12  1  0  0  0  0
 12 13  1  0  0  0  0
 13 14  2  0  0  0  0
 14 15  1  0  0  0  0
 15 16  1  0  0  0  0
 16 17  1  0  0  0  0
 17 18  1  0  0  0  0
 18 19  1  0  0  0  0
 19 20  1  0  0  0  0
 20 21  1  0  0  0  0
 21 22  1  0  0  0  0
M  END
> <Molecule Name>
506

> <CDD Number>
CDD-16111

> <Human_sEH_IC50_uM>
500.0

> <Mouse_sEH_IC50_uM>
130.0

$$$$

SketchEl molfile

 17 16  0  0  0  0  0  0  0  0999 V2000
    0.0000    0.7000    0.0000 C   0  0  0  0  0  0  0  0  0  0  0  0
    1.2124    1.4000    0.0000 S   0  0  0  0  0  0  0  0  0  0  0  0
    2.4249    0.7000    0.0000 N   0  0  0  0  0  0  0  0  0  0  0  0
    1.2124    2.8000    0.0000 O   0  0  0  0  0  0  0  0  0  0  0  0
    1.2124    0.0000    0.0000 O   0  0  0  0  0  0  0  0  0  0  0  0
    3.6373    1.4000    0.0000 C   0  0  0  0  0  0  0  0  0  0  0  0
    4.8497    0.7000    0.0000 C   0  0  0  0  0  0  0  0  0  0  0  0
    6.0622    1.4000    0.0000 C   0  0  0  0  0  0  0  0  0  0  0  0
    7.2746    0.7000    0.0000 C   0  0  0  0  0  0  0  0  0  0  0  0
    8.4870    1.4000    0.0000 C   0  0  0  0  0  0  0  0  0  0  0  0
    9.6995    0.7000    0.0000 C   0  0  0  0  0  0  0  0  0  0  0  0
   10.9119    1.4000    0.0000 C   0  0  0  0  0  0  0  0  0  0  0  0
   12.1244    0.7000    0.0000 C   0  0  0  0  0  0  0  0  0  0  0  0
   13.3368    1.4000    0.0000 C   0  0  0  0  0  0  0  0  0  0  0  0
   14.5492    0.7000    0.0000 C   0  0  0  0  0  0  0  0  0  0  0  0
   15.7617    1.4000    0.0000 C   0  0  0  0  0  0  0  0  0  0  0  0
   16.9741    0.7000    0.0000 C   0  0  0  0  0  0  0  0  0  0  0  0
  1  2  1  0  0  0  0
  2  3  1  0  0  0  0
  2  4  2  0  0  0  0
  2  5  2  0  0  0  0
  3  6  1  0  0  0  0
  6  7  1  0  0  0  0
  7  8  1  0  0  0  0
  8  9  1  0  0  0  0
  9 10  1  0  0  0  0
 10 11  1  0  0  0  0
 11 12  1  0  0  0  0
 12 13  1  0  0  0  0
 13 14  1  0  0  0  0
 14 15  1  0  0  0  0
 15 16  1  0  0  0  0
 16 17  1  0  0  0  0
M  END
> <Molecule Name>
505

> <CDD Number>
CDD-15653

> <Human_sEH_IC50_uM>
500.0

> <Mouse_sEH_IC50_uM>
140.0

$$$$

SketchEl molfile

 20 20  0  0  0  0  0  0  0  0999 V2000
    0.0000    0.0993    0.0000 C   0  0  0  0  0  0  0  0  0  0  0  0
    1.2124    0.7993    0.0000 C   0  0  0  0  0  0  0  0  0  0  0  0
    2.4249    0.0993    0.0000 C   0  0  0  0  0  0  0  0  0  0  0  0
    3.6373    0.7993    0.0000 C   0  0  0  0  0  0  0  0  0  0  0  0
    4.8497    0.0993    0.0000 C   0  0  0  0  0  0  0  0  0  0  0  0
    6.0622    0.7993    0.0000 C   0  0  0  0  0  0  0  0  0  0  0  0
    7.2746    0.0993    0.0000 C   0  0  0  0  0  0  0  0  0  0  0  0
    8.4870    0.7993    0.0000 C   0  0  0  0  0  0  0  0  0  0  0  0
    9.6995    0.0993    0.0000 C   0  0  0  0  0  0  0  0  0  0  0  0
   10.9119    0.7993    0.0000 C   0  0  0  0  0  0  0  0  0  0  0  0
   12.1244    0.0993    0.0000 C   0  0  0  0  0  0  0  0  0  0  0  0
   13.3368    0.7993    0.0000 C   0  0  0  0  0  0  0  0  0  0  0  0
   14.5492    0.0993    0.0000 N   0  0  0  0  0  0  0  0  0  0  0  0
   15.5392    0.7000    0.0000 C   0  0  0  0  0  0  0  0  0  0  0  0
   16.7516    0.0000    0.0000 N   0  0  0  0  0  0  0  0  0  0  0  0
   15.5392    2.1000    0.0000 O   0  0  0  0  0  0  0  0  0  0  0  0
   17.7416    0.6007    0.0000 C   0  0  0  0  0  0  0  0  0  0  0  0
   17.7416    2.0007    0.0000 C   0  0  0  0  0  0  0  0  0  0  0  0
   19.1416    0.6007    0.0000 C   0  0  0  0  0  0  0  0  0  0  0  0
   19.1416    2.0007    0.0000 C   0  0  0  0  0  0  0  0  0  0  0  0
  1  2  1  0  0  0  0
  2  3  1  0  0  0  0
  3  4  1  0  0  0  0
  4  5  1  0  0  0  0
  5  6  1  0  0  0  0
  6  7  1  0  0  0  0
  7  8  1  0  0  0  0
  8  9  1  0  0  0  0
  9 10  1  0  0  0  0
 10 11  1  0  0  0  0
 11 12  1  0  0  0  0
 12 13  1  0  0  0  0
 13 14  1  0  0  0  0
 14 15  1  0  0  0  0
 14 16  2  0  0  0  0
 15 17  1  0  0  0  0
 17 18  1  0  0  0  0
 17 19  1  0  0  0  0
 19 20  1  0  0  0  0
 18 20  1  0  0  0  0
M  END
> <Molecule Name>
504

> <CDD Number>
CDD-15853

> <Human_sEH_IC50_uM>
23.0

> <Mouse_sEH_IC50_uM>
0.8

$$$$

SketchEl molfile

 19 19  0  0  0  0  0  0  0  0999 V2000
    0.0000    0.0993    0.0000 C   0  0  0  0  0  0  0  0  0  0  0  0
    1.2124    0.7993    0.0000 C   0  0  0  0  0  0  0  0  0  0  0  0
    2.4249    0.0993    0.0000 C   0  0  0  0  0  0  0  0  0  0  0  0
    3.6373    0.7993    0.0000 C   0  0  0  0  0  0  0  0  0  0  0  0
    4.8497    0.0993    0.0000 C   0  0  0  0  0  0  0  0  0  0  0  0
    6.0622    0.7993    0.0000 C   0  0  0  0  0  0  0  0  0  0  0  0
    7.2746    0.0993    0.0000 C   0  0  0  0  0  0  0  0  0  0  0  0
    8.4870    0.7993    0.0000 C   0  0  0  0  0  0  0  0  0  0  0  0
    9.6995    0.0993    0.0000 C   0  0  0  0  0  0  0  0  0  0  0  0
   10.9119    0.7993    0.0000 C   0  0  0  0  0  0  0  0  0  0  0  0
   12.1244    0.0993    0.0000 C   0  0  0  0  0  0  0  0  0  0  0  0
   13.3368    0.7993    0.0000 C   0  0  0  0  0  0  0  0  0  0  0  0
   14.5492    0.0993    0.0000 N   0  0  0  0  0  0  0  0  0  0  0  0
   15.5392    0.7000    0.0000 C   0  0  0  0  0  0  0  0  0  0  0  0
   16.7516    0.0000    0.0000 N   0  0  0  0  0  0  0  0  0  0  0  0
   15.5392    2.1000    0.0000 O   0  0  0  0  0  0  0  0  0  0  0  0
   17.7416    0.6007    0.0000 C   0  0  0  0  0  0  0  0  0  0  0  0
   18.1039    1.9530    0.0000 C   0  0  0  0  0  0  0  0  0  0  0  0
   19.0939    0.9630    0.0000 C   0  0  0  0  0  0  0  0  0  0  0  0
  1  2  1  0  0  0  0
  2  3  1  0  0  0  0
  3  4  1  0  0  0  0
  4  5  1  0  0  0  0
  5  6  1  0  0  0  0
  6  7  1  0  0  0  0
  7  8  1  0  0  0  0
  8  9  1  0  0  0  0
  9 10  1  0  0  0  0
 10 11  1  0  0  0  0
 11 12  1  0  0  0  0
 12 13  1  0  0  0  0
 13 14  1  0  0  0  0
 14 15  1  0  0  0  0
 14 16  2  0  0  0  0
 15 17  1  0  0  0  0
 17 18  1  0  0  0  0
 17 19  1  0  0  0  0
 18 19  1  0  0  0  0
M  END
> <Molecule Name>
503

> <CDD Number>
CDD-15852

> <Human_sEH_IC50_uM>
500.0

> <Mouse_sEH_IC50_uM>
35.0

$$$$

SketchEl molfile

 19 20  0  0  0  0  0  0  0  0999 V2000
    0.0000    2.1000    0.0000 C   0  0  0  0  0  0  0  0  0  0  0  0
    0.0000    0.7000    0.0000 C   0  0  0  0  0  0  0  0  0  0  0  0
    1.2124    0.0000    0.0000 C   0  0  0  0  0  0  0  0  0  0  0  0
    2.4249    0.7000    0.0000 C   0  0  0  0  0  0  0  0  0  0  0  0
    2.4249    2.1000    0.0000 C   0  0  0  0  0  0  0  0  0  0  0  0
    1.2124    2.8000    0.0000 C   0  0  0  0  0  0  0  0  0  0  0  0
    3.6373    2.8000    0.0000 C   0  0  0  0  0  0  0  0  0  0  0  0
    4.8497    2.1000    0.0000 N   0  0  0  0  0  0  0  0  0  0  0  0
    3.6373    4.2000    0.0000 O   0  0  0  0  0  0  0  0  0  0  0  0
    6.0622    2.8000    0.0000 C   0  0  0  0  0  0  0  0  0  0  0  0
    7.2746    2.1000    0.0000 C   0  0  0  0  0  0  0  0  0  0  0  0
    8.4870    2.8000    0.0000 C   0  0  0  0  0  0  0  0  0  0  0  0
    9.6995    2.1000    0.0000 C   0  0  0  0  0  0  0  0  0  0  0  0
   10.9119    2.8000    0.0000 C   0  0  0  0  0  0  0  0  0  0  0  0
   12.1244    2.1000    0.0000 C   0  0  0  0  0  0  0  0  0  0  0  0
   13.3368    2.8000    0.0000 C   0  0  0  0  0  0  0  0  0  0  0  0
   13.3368    4.2000    0.0000 C   0  0  0  0  0  0  0  0  0  0  0  0
   12.1244    4.9000    0.0000 C   0  0  0  0  0  0  0  0  0  0  0  0
   10.9119    4.2000    0.0000 C   0  0  0  0  0  0  0  0  0  0  0  0
  1  2  2  0  0  0  0
  2  3  1  0  0  0  0
  3  4  2  0  0  0  0
  4  5  1  0  0  0  0
  5  6  2  0  0  0  0
  6  1  1  0  0  0  0
  5  7  1  0  0  0  0
  7  8  1  0  0  0  0
  7  9  2  0  0  0  0
  8 10  1  0  0  0  0
 10 11  1  0  0  0  0
 11 12  1  0  0  0  0
 12 13  1  0  0  0  0
 13 14  1  0  0  0  0
 14 15  2  0  0  0  0
 15 16  1  0  0  0  0
 16 17  2  0  0  0  0
 17 18  1  0  0  0  0
 18 19  2  0  0  0  0
 19 14  1  0  0  0  0
M  END
> <Molecule Name>
502

> <CDD Number>
CDD-16169

> <Human_sEH_IC50_uM>
15.0

> <Mouse_sEH_IC50_uM>
11.0

$$$$

SketchEl molfile

 22 23  0  0  0  0  0  0  0  0999 V2000
    7.2746    0.7000    0.0000 C   0  0  0  0  0  0  0  0  0  0  0  0
    6.0622    0.0000    0.0000 N   0  0  0  0  0  0  0  0  0  0  0  0
    4.8497    0.7000    0.0000 C   0  0  0  0  0  0  0  0  0  0  0  0
    3.6373    0.0000    0.0000 N   0  0  0  0  0  0  0  0  0  0  0  0
    4.8497    2.1000    0.0000 O   0  0  0  0  0  0  0  0  0  0  0  0
    2.4249    0.7000    0.0000 C   0  0  0  0  0  0  0  0  0  0  0  0
    2.4249    2.1000    0.0000 C   0  0  0  0  0  0  0  0  0  0  0  0
    1.2124    2.8000    0.0000 C   0  0  0  0  0  0  0  0  0  0  0  0
    0.0000    2.1000    0.0000 C   0  0  0  0  0  0  0  0  0  0  0  0
    0.0000    0.7000    0.0000 C   0  0  0  0  0  0  0  0  0  0  0  0
    1.2124    0.0000    0.0000 C   0  0  0  0  0  0  0  0  0  0  0  0
    8.4870    0.0000    0.0000 C   0  0  0  0  0  0  0  0  0  0  0  0
    9.6995    0.7000    0.0000 C   0  0  0  0  0  0  0  0  0  0  0  0
    9.6995    2.1000    0.0000 C   0  0  0  0  0  0  0  0  0  0  0  0
    8.4870    2.8000    0.0000 C   0  0  0  0  0  0  0  0  0  0  0  0
    7.2746    2.1000    0.0000 C   0  0  0  0  0  0  0  0  0  0  0  0
   10.9119    2.8000    0.0000 C   0  0  0  0  0  0  0  0  0  0  0  0
   12.1244    2.1000    0.0000 C   0  0  0  0  0  0  0  0  0  0  0  0
   13.3368    2.8000    0.0000 C   0  0  0  0  0  0  0  0  0  0  0  0
   14.5492    2.1000    0.0000 C   0  0  0  0  0  0  0  0  0  0  0  0
   15.7617    2.8000    0.0000 C   0  0  0  0  0  0  0  0  0  0  0  0
   16.9741    2.1000    0.0000 C   0  0  0  0  0  0  0  0  0  0  0  0
  1  2  1  0  0  0  0
  2  3  1  0  0  0  0
  3  4  1  0  0  0  0
  3  5  2  0  0  0  0
  4  6  1  0  0  0  0
  6  7  1  0  0  0  0
  7  8  1  0  0  0  0
  8  9  1  0  0  0  0
  9 10  1  0  0  0  0
 10 11  1  0  0  0  0
 11  6  1  0  0  0  0
  1 12  2  0  0  0  0
 12 13  1  0  0  0  0
 13 14  2  0  0  0  0
 14 15  1  0  0  0  0
 15 16  2  0  0  0  0
 16  1  1  0  0  0  0
 14 17  1  0  0  0  0
 17 18  1  0  0  0  0
 18 19  1  0  0  0  0
 19 20  1  0  0  0  0
 20 21  1  0  0  0  0
 21 22  1  0  0  0  0
M  END
> <Molecule Name>
501

> <CDD Number>
CDD-15878

> <Human_sEH_IC50_uM>
0.16

> <Mouse_sEH_IC50_uM>
0.05

$$$$

SketchEl molfile

 19 20  0  0  0  0  0  0  0  0999 V2000
    0.0000    0.7000    0.0000 C   0  0  0  0  0  0  0  0  0  0  0  0
    1.2124    0.0000    0.0000 C   0  0  0  0  0  0  0  0  0  0  0  0
    2.4249    0.7000    0.0000 C   0  0  0  0  0  0  0  0  0  0  0  0
    2.4249    2.1000    0.0000 C   0  0  0  0  0  0  0  0  0  0  0  0
    1.2124    2.8000    0.0000 C   0  0  0  0  0  0  0  0  0  0  0  0
    0.0000    2.1000    0.0000 C   0  0  0  0  0  0  0  0  0  0  0  0
    3.6373    2.8000    0.0000 C   0  0  0  0  0  0  0  0  0  0  0  0
    4.8497    2.1000    0.0000 N   0  0  0  0  0  0  0  0  0  0  0  0
    3.6373    4.2000    0.0000 O   0  0  0  0  0  0  0  0  0  0  0  0
    6.0622    2.8000    0.0000 C   0  0  0  0  0  0  0  0  0  0  0  0
    7.2746    2.1000    0.0000 C   0  0  0  0  0  0  0  0  0  0  0  0
    8.4870    2.8000    0.0000 C   0  0  0  0  0  0  0  0  0  0  0  0
    9.6995    2.1000    0.0000 C   0  0  0  0  0  0  0  0  0  0  0  0
   10.9119    2.8000    0.0000 C   0  0  0  0  0  0  0  0  0  0  0  0
   12.1244    2.1000    0.0000 C   0  0  0  0  0  0  0  0  0  0  0  0
   13.3368    2.8000    0.0000 C   0  0  0  0  0  0  0  0  0  0  0  0
   13.3368    4.2000    0.0000 C   0  0  0  0  0  0  0  0  0  0  0  0
   12.1244    4.9000    0.0000 C   0  0  0  0  0  0  0  0  0  0  0  0
   10.9119    4.2000    0.0000 C   0  0  0  0  0  0  0  0  0  0  0  0
  1  2  1  0  0  0  0
  2  3  1  0  0  0  0
  3  4  1  0  0  0  0
  4  5  1  0  0  0  0
  5  6  1  0  0  0  0
  6  1  1  0  0  0  0
  4  7  1  0  0  0  0
  7  8  1  0  0  0  0
  7  9  2  0  0  0  0
  8 10  1  0  0  0  0
 10 11  1  0  0  0  0
 11 12  1  0  0  0  0
 12 13  1  0  0  0  0
 13 14  1  0  0  0  0
 14 15  2  0  0  0  0
 15 16  1  0  0  0  0
 16 17  2  0  0  0  0
 17 18  1  0  0  0  0
 18 19  2  0  0  0  0
 19 14  1  0  0  0  0
M  END
> <Molecule Name>
500

> <CDD Number>
CDD-16166

> <Human_sEH_IC50_uM>
7.4

> <Mouse_sEH_IC50_uM>
1.7

$$$$

SketchEl molfile

 14 14  0  0  0  0  0  0  0  0999 V2000
    0.0000    0.8721    0.0000 C   0  0  0  0  0  0  0  0  0  0  0  0
    1.2124    0.1721    0.0000 C   0  0  0  0  0  0  0  0  0  0  0  0
    2.4249    0.8721    0.0000 C   0  0  0  0  0  0  0  0  0  0  0  0
    2.4249    2.2721    0.0000 C   0  0  0  0  0  0  0  0  0  0  0  0
    1.2124    2.9721    0.0000 C   0  0  0  0  0  0  0  0  0  0  0  0
    0.0000    2.2721    0.0000 C   0  0  0  0  0  0  0  0  0  0  0  0
    3.6373    0.1721    0.0000 N   0  0  0  0  0  0  0  0  0  0  0  0
    4.6273    0.7728    0.0000 C   0  0  0  0  0  0  0  0  0  0  0  0
    5.8397    0.0728    0.0000 N   0  0  0  0  0  0  0  0  0  0  0  0
    4.6273    2.1728    0.0000 O   0  0  0  0  0  0  0  0  0  0  0  0
    6.8296    0.6734    0.0000 C   0  0  0  0  0  0  0  0  0  0  0  0
    8.0570    0.0000    0.0000 C   0  0  0  0  0  0  0  0  0  0  0  0
    9.2695    0.7000    0.0000 C   0  0  0  0  0  0  0  0  0  0  0  0
    6.8296    2.0734    0.0000 C   0  0  0  0  0  0  0  0  0  0  0  0
  1  2  1  0  0  0  0
  2  3  1  0  0  0  0
  3  4  1  0  0  0  0
  4  5  1  0  0  0  0
  5  6  1  0  0  0  0
  6  1  1  0  0  0  0
  3  7  1  0  0  0  0
  7  8  1  0  0  0  0
  8  9  1  0  0  0  0
  8 10  2  0  0  0  0
  9 11  1  0  0  0  0
 11 12  1  0  0  0  0
 12 13  1  0  0  0  0
 11 14  1  0  0  0  0
M  END
> <Molecule Name>
479

> <CDD Number>
CDD-15896

> <Human_sEH_IC50_uM>
5.0

> <Mouse_sEH_IC50_uM>
0.6

$$$$

SketchEl molfile

 20 19  0  0  0  0  0  0  0  0999 V2000
   10.9119    2.1728    0.0000 C   0  0  0  0  0  0  0  0  0  0  0  0
   12.1244    1.4728    0.0000 C   0  0  0  0  0  0  0  0  0  0  0  0
   13.3368    2.1728    0.0000 C   0  0  0  0  0  0  0  0  0  0  0  0
   14.5492    1.4728    0.0000 N   0  0  0  0  0  0  0  0  0  0  0  0
   15.7617    2.1728    0.0000 C   0  0  0  0  0  0  0  0  0  0  0  0
   16.9741    1.4728    0.0000 N   0  0  0  0  0  0  0  0  0  0  0  0
   15.7617    3.5728    0.0000 O   0  0  0  0  0  0  0  0  0  0  0  0
    9.6995    1.4728    0.0000 C   0  0  0  0  0  0  0  0  0  0  0  0
    8.4870    2.1728    0.0000 C   0  0  0  0  0  0  0  0  0  0  0  0
    7.2746    1.4728    0.0000 C   0  0  0  0  0  0  0  0  0  0  0  0
    6.0622    2.1728    0.0000 C   0  0  0  0  0  0  0  0  0  0  0  0
    4.8497    1.4728    0.0000 C   0  0  0  0  0  0  0  0  0  0  0  0
    3.6373    2.1728    0.0000 C   0  0  0  0  0  0  0  0  0  0  0  0
    2.4249    1.4728    0.0000 C   0  0  0  0  0  0  0  0  0  0  0  0
    1.2124    2.1728    0.0000 C   0  0  0  0  0  0  0  0  0  0  0  0
    0.0000    1.4728    0.0000 C   0  0  0  0  0  0  0  0  0  0  0  0
   17.9640    2.0734    0.0000 C   0  0  0  0  0  0  0  0  0  0  0  0
   19.1914    1.4000    0.0000 C   0  0  0  0  0  0  0  0  0  0  0  0
   20.3883    2.1262    0.0000 C   0  0  0  0  0  0  0  0  0  0  0  0
   19.1914    0.0000    0.0000 C   0  0  0  0  0  0  0  0  0  0  0  0
  1  2  1  0  0  0  0
  2  3  1  0  0  0  0
  3  4  1  0  0  0  0
  4  5  1  0  0  0  0
  5  6  1  0  0  0  0
  5  7  2  0  0  0  0
  1  8  1  0  0  0  0
  8  9  1  0  0  0  0
  9 10  1  0  0  0  0
 10 11  1  0  0  0  0
 11 12  1  0  0  0  0
 12 13  1  0  0  0  0
 13 14  1  0  0  0  0
 14 15  1  0  0  0  0
 15 16  1  0  0  0  0
  6 17  1  0  0  0  0
 17 18  1  0  0  0  0
 18 19  1  0  0  0  0
 18 20  1  0  0  0  0
M  END
> <Molecule Name>
478

> <CDD Number>
CDD-15843

> <Human_sEH_IC50_uM>
0.26

> <Mouse_sEH_IC50_uM>
0.05

$$$$

SketchEl molfile

 24 24  0  0  0  0  0  0  0  0999 V2000
    0.0000    0.8987    0.0000 C   0  0  0  0  0  0  0  0  0  0  0  0
    1.2124    0.1987    0.0000 C   0  0  0  0  0  0  0  0  0  0  0  0
    2.4249    0.8987    0.0000 C   0  0  0  0  0  0  0  0  0  0  0  0
    2.4249    2.2987    0.0000 C   0  0  0  0  0  0  0  0  0  0  0  0
    1.2124    2.9987    0.0000 C   0  0  0  0  0  0  0  0  0  0  0  0
    0.0000    2.2987    0.0000 C   0  0  0  0  0  0  0  0  0  0  0  0
    3.6373    0.1987    0.0000 N   0  0  0  0  0  0  0  0  0  0  0  0
    4.6273    0.7993    0.0000 C   0  0  0  0  0  0  0  0  0  0  0  0
    5.8397    0.0993    0.0000 N   0  0  0  0  0  0  0  0  0  0  0  0
    4.6273    2.1993    0.0000 O   0  0  0  0  0  0  0  0  0  0  0  0
    6.8296    0.7000    0.0000 C   0  0  0  0  0  0  0  0  0  0  0  0
    8.0421    0.0000    0.0000 C   0  0  0  0  0  0  0  0  0  0  0  0
    9.2545    0.7000    0.0000 C   0  0  0  0  0  0  0  0  0  0  0  0
   10.4669    0.0000    0.0000 C   0  0  0  0  0  0  0  0  0  0  0  0
   11.6794    0.7000    0.0000 C   0  0  0  0  0  0  0  0  0  0  0  0
   12.8918    0.0000    0.0000 C   0  0  0  0  0  0  0  0  0  0  0  0
   14.1043    0.7000    0.0000 C   0  0  0  0  0  0  0  0  0  0  0  0
   15.3167    0.0000    0.0000 C   0  0  0  0  0  0  0  0  0  0  0  0
   16.5291    0.7000    0.0000 C   0  0  0  0  0  0  0  0  0  0  0  0
   17.7416    0.0000    0.0000 C   0  0  0  0  0  0  0  0  0  0  0  0
   18.9540    0.7000    0.0000 C   0  0  0  0  0  0  0  0  0  0  0  0
   20.1664    0.0000    0.0000 C   0  0  0  0  0  0  0  0  0  0  0  0
   21.3789    0.7000    0.0000 C   0  0  0  0  0  0  0  0  0  0  0  0
   22.5913    0.0000    0.0000 C   0  0  0  0  0  0  0  0  0  0  0  0
  1  2  1  0  0  0  0
  2  3  1  0  0  0  0
  3  4  1  0  0  0  0
  4  5  1  0  0  0  0
  5  6  1  0  0  0  0
  6  1  1  0  0  0  0
  3  7  1  0  0  0  0
  7  8  1  0  0  0  0
  8  9  1  0  0  0  0
  8 10  2  0  0  0  0
  9 11  1  0  0  0  0
 11 12  1  0  0  0  0
 12 13  1  0  0  0  0
 13 14  1  0  0  0  0
 14 15  1  0  0  0  0
 15 16  1  0  0  0  0
 16 17  1  0  0  0  0
 17 18  1  0  0  0  0
 18 19  1  0  0  0  0
 19 20  1  0  0  0  0
 20 21  1  0  0  0  0
 21 22  1  0  0  0  0
 22 23  1  0  0  0  0
 23 24  1  0  0  0  0
M  END
> <Molecule Name>
477

> <CDD Number>
CDD-15934

> <Human_sEH_IC50_uM>
0.24

> <Mouse_sEH_IC50_uM>
0.11

$$$$

SketchEl molfile

 12 12  0  0  0  0  0  0  0  0999 V2000
    0.0000    0.8987    0.0000 C   0  0  0  0  0  0  0  0  0  0  0  0
    1.2124    0.1987    0.0000 C   0  0  0  0  0  0  0  0  0  0  0  0
    2.4249    0.8987    0.0000 C   0  0  0  0  0  0  0  0  0  0  0  0
    2.4249    2.2987    0.0000 C   0  0  0  0  0  0  0  0  0  0  0  0
    1.2124    2.9987    0.0000 C   0  0  0  0  0  0  0  0  0  0  0  0
    0.0000    2.2987    0.0000 C   0  0  0  0  0  0  0  0  0  0  0  0
    3.6373    0.1987    0.0000 N   0  0  0  0  0  0  0  0  0  0  0  0
    4.6273    0.7993    0.0000 C   0  0  0  0  0  0  0  0  0  0  0  0
    5.8397    0.0993    0.0000 N   0  0  0  0  0  0  0  0  0  0  0  0
    4.6273    2.1993    0.0000 O   0  0  0  0  0  0  0  0  0  0  0  0
    6.8296    0.7000    0.0000 O   0  0  0  0  0  0  0  0  0  0  0  0
    8.0421    0.0000    0.0000 C   0  0  0  0  0  0  0  0  0  0  0  0
  1  2  1  0  0  0  0
  2  3  1  0  0  0  0
  3  4  1  0  0  0  0
  4  5  1  0  0  0  0
  5  6  1  0  0  0  0
  6  1  1  0  0  0  0
  3  7  1  0  0  0  0
  7  8  1  0  0  0  0
  8  9  1  0  0  0  0
  8 10  2  0  0  0  0
  9 11  1  0  0  0  0
 11 12  1  0  0  0  0
M  END
> <Molecule Name>
475

> <CDD Number>
CDD-15870

> <Human_sEH_IC50_uM>
8.3

> <Mouse_sEH_IC50_uM>
3.1

$$$$

SketchEl molfile

 19 19  0  0  0  0  0  0  0  0999 V2000
    0.0000    0.8987    0.0000 C   0  0  0  0  0  0  0  0  0  0  0  0
    1.2124    0.1987    0.0000 C   0  0  0  0  0  0  0  0  0  0  0  0
    2.4249    0.8987    0.0000 C   0  0  0  0  0  0  0  0  0  0  0  0
    2.4249    2.2987    0.0000 C   0  0  0  0  0  0  0  0  0  0  0  0
    1.2124    2.9987    0.0000 C   0  0  0  0  0  0  0  0  0  0  0  0
    0.0000    2.2987    0.0000 C   0  0  0  0  0  0  0  0  0  0  0  0
    3.6373    0.1987    0.0000 N   0  0  0  0  0  0  0  0  0  0  0  0
    4.6273    0.7993    0.0000 C   0  0  0  0  0  0  0  0  0  0  0  0
    5.8397    0.0993    0.0000 N   0  0  0  0  0  0  0  0  0  0  0  0
    4.6273    2.1993    0.0000 O   0  0  0  0  0  0  0  0  0  0  0  0
    6.8296    0.7000    0.0000 C   0  0  0  0  0  0  0  0  0  0  0  0
    8.0421    0.0000    0.0000 C   0  0  0  0  0  0  0  0  0  0  0  0
    9.2545    0.7000    0.0000 C   0  0  0  0  0  0  0  0  0  0  0  0
   10.4669    0.0000    0.0000 C   0  0  0  0  0  0  0  0  0  0  0  0
   11.6794    0.7000    0.0000 C   0  0  0  0  0  0  0  0  0  0  0  0
   12.8918    0.0000    0.0000 C   0  0  0  0  0  0  0  0  0  0  0  0
   14.1043    0.7000    0.0000 C   0  0  0  0  0  0  0  0  0  0  0  0
   15.3167    0.0000    0.0000 C   0  0  0  0  0  0  0  0  0  0  0  0
   16.5291    0.7000    0.0000 C   0  0  0  0  0  0  0  0  0  0  0  0
  1  2  1  0  0  0  0
  2  3  1  0  0  0  0
  3  4  1  0  0  0  0
  4  5  1  0  0  0  0
  5  6  1  0  0  0  0
  6  1  1  0  0  0  0
  3  7  1  0  0  0  0
  7  8  1  0  0  0  0
  8  9  1  0  0  0  0
  8 10  2  0  0  0  0
  9 11  1  0  0  0  0
 11 12  1  0  0  0  0
 12 13  1  0  0  0  0
 13 14  1  0  0  0  0
 14 15  1  0  0  0  0
 15 16  1  0  0  0  0
 16 17  1  0  0  0  0
 17 18  1  0  0  0  0
 18 19  1  0  0  0  0
M  END
> <Molecule Name>
473

> <CDD Number>
CDD-15926

> <Human_sEH_IC50_uM>
0.1

> <Mouse_sEH_IC50_uM>
0.05

$$$$

SketchEl molfile

 13 13  0  0  0  0  0  0  0  0999 V2000
    0.0000    0.8987    0.0000 C   0  0  0  0  0  0  0  0  0  0  0  0
    1.2124    0.1987    0.0000 C   0  0  0  0  0  0  0  0  0  0  0  0
    2.4249    0.8987    0.0000 C   0  0  0  0  0  0  0  0  0  0  0  0
    2.4249    2.2987    0.0000 C   0  0  0  0  0  0  0  0  0  0  0  0
    1.2124    2.9987    0.0000 C   0  0  0  0  0  0  0  0  0  0  0  0
    0.0000    2.2987    0.0000 C   0  0  0  0  0  0  0  0  0  0  0  0
    3.6373    0.1987    0.0000 N   0  0  0  0  0  0  0  0  0  0  0  0
    4.6273    0.7993    0.0000 C   0  0  0  0  0  0  0  0  0  0  0  0
    5.8397    0.0993    0.0000 N   0  0  0  0  0  0  0  0  0  0  0  0
    4.6273    2.1993    0.0000 O   0  0  0  0  0  0  0  0  0  0  0  0
    6.8296    0.7000    0.0000 C   0  0  0  0  0  0  0  0  0  0  0  0
    8.0421    0.0000    0.0000 C   0  0  0  0  0  0  0  0  0  0  0  0
    9.4421    0.0000    0.0000 N   0  0  0  0  0  0  0  0  0  0  0  0
  1  2  1  0  0  0  0
  2  3  1  0  0  0  0
  3  4  1  0  0  0  0
  4  5  1  0  0  0  0
  5  6  1  0  0  0  0
  6  1  1  0  0  0  0
  3  7  1  0  0  0  0
  7  8  1  0  0  0  0
  8  9  1  0  0  0  0
  8 10  2  0  0  0  0
  9 11  1  0  0  0  0
 11 12  1  0  0  0  0
 12 13  3  0  0  0  0
M  END
> <Molecule Name>
472

> <CDD Number>
CDD-15902

> <Human_sEH_IC50_uM>
96.0

> <Mouse_sEH_IC50_uM>
74.0

$$$$

SketchEl molfile

 19 20  0  0  0  0  0  0  0  0999 V2000
    3.6373    2.8000    0.0000 C   0  0  0  0  0  0  0  0  0  0  0  0
    4.8497    2.1000    0.0000 N   0  0  0  0  0  0  0  0  0  0  0  0
    6.0622    2.8000    0.0000 C   0  0  0  0  0  0  0  0  0  0  0  0
    7.2746    2.1000    0.0000 N   0  0  0  0  0  0  0  0  0  0  0  0
    6.0622    4.2000    0.0000 O   0  0  0  0  0  0  0  0  0  0  0  0
    2.4249    2.1000    0.0000 C   0  0  0  0  0  0  0  0  0  0  0  0
    1.2124    2.8000    0.0000 C   0  0  0  0  0  0  0  0  0  0  0  0
    0.0000    2.1000    0.0000 C   0  0  0  0  0  0  0  0  0  0  0  0
    0.0000    0.7000    0.0000 C   0  0  0  0  0  0  0  0  0  0  0  0
    1.2124    0.0000    0.0000 C   0  0  0  0  0  0  0  0  0  0  0  0
    2.4249    0.7000    0.0000 C   0  0  0  0  0  0  0  0  0  0  0  0
    8.2646    2.7007    0.0000 C   0  0  0  0  0  0  0  0  0  0  0  0
    9.4920    2.0272    0.0000 C   0  0  0  0  0  0  0  0  0  0  0  0
   10.6889    2.7535    0.0000 C   0  0  0  0  0  0  0  0  0  0  0  0
   11.9013    2.0535    0.0000 C   0  0  0  0  0  0  0  0  0  0  0  0
   13.1137    2.7535    0.0000 C   0  0  0  0  0  0  0  0  0  0  0  0
   13.1137    4.1535    0.0000 C   0  0  0  0  0  0  0  0  0  0  0  0
   11.9013    4.8535    0.0000 C   0  0  0  0  0  0  0  0  0  0  0  0
   10.6889    4.1535    0.0000 C   0  0  0  0  0  0  0  0  0  0  0  0
  1  2  1  0  0  0  0
  2  3  1  0  0  0  0
  3  4  1  0  0  0  0
  3  5  2  0  0  0  0
  1  6  1  0  0  0  0
  6  7  2  0  0  0  0
  7  8  1  0  0  0  0
  8  9  2  0  0  0  0
  9 10  1  0  0  0  0
 10 11  2  0  0  0  0
 11  6  1  0  0  0  0
  4 12  1  0  0  0  0
 12 13  1  0  0  0  0
 13 14  1  0  0  0  0
 14 15  1  0  0  0  0
 15 16  1  0  0  0  0
 16 17  1  0  0  0  0
 17 18  1  0  0  0  0
 18 19  1  0  0  0  0
 19 14  2  0  0  0  0
M  END
> <Molecule Name>
471

> <CDD Number>
CDD-16013

> <Human_sEH_IC50_uM>
2.2

> <Mouse_sEH_IC50_uM>
0.25

$$$$

SketchEl molfile

 19 20  0  0  0  0  0  0  0  0999 V2000
    3.6373    2.8000    0.0000 C   0  0  0  0  0  0  0  0  0  0  0  0
    4.8497    2.1000    0.0000 N   0  0  0  0  0  0  0  0  0  0  0  0
    6.0622    2.8000    0.0000 C   0  0  0  0  0  0  0  0  0  0  0  0
    7.2746    2.1000    0.0000 N   0  0  0  0  0  0  0  0  0  0  0  0
    6.0622    4.2000    0.0000 O   0  0  0  0  0  0  0  0  0  0  0  0
    2.4249    2.1000    0.0000 C   0  0  0  0  0  0  0  0  0  0  0  0
    1.2124    2.8000    0.0000 C   0  0  0  0  0  0  0  0  0  0  0  0
    0.0000    2.1000    0.0000 C   0  0  0  0  0  0  0  0  0  0  0  0
    0.0000    0.7000    0.0000 C   0  0  0  0  0  0  0  0  0  0  0  0
    1.2124    0.0000    0.0000 C   0  0  0  0  0  0  0  0  0  0  0  0
    2.4249    0.7000    0.0000 C   0  0  0  0  0  0  0  0  0  0  0  0
    8.2646    2.7007    0.0000 C   0  0  0  0  0  0  0  0  0  0  0  0
    9.4920    2.0272    0.0000 C   0  0  0  0  0  0  0  0  0  0  0  0
   10.6889    2.7535    0.0000 C   0  0  0  0  0  0  0  0  0  0  0  0
   11.9013    2.0535    0.0000 C   0  0  0  0  0  0  0  0  0  0  0  0
   13.1137    2.7535    0.0000 C   0  0  0  0  0  0  0  0  0  0  0  0
   13.1137    4.1535    0.0000 C   0  0  0  0  0  0  0  0  0  0  0  0
   11.9013    4.8535    0.0000 C   0  0  0  0  0  0  0  0  0  0  0  0
   10.6889    4.1535    0.0000 C   0  0  0  0  0  0  0  0  0  0  0  0
  1  2  1  0  0  0  0
  2  3  1  0  0  0  0
  3  4  1  0  0  0  0
  3  5  2  0  0  0  0
  1  6  1  0  0  0  0
  6  7  2  0  0  0  0
  7  8  1  0  0  0  0
  8  9  2  0  0  0  0
  9 10  1  0  0  0  0
 10 11  2  0  0  0  0
 11  6  1  0  0  0  0
  4 12  1  0  0  0  0
 12 13  1  0  0  0  0
 13 14  1  0  0  0  0
 14 15  2  0  0  0  0
 15 16  1  0  0  0  0
 16 17  2  0  0  0  0
 17 18  1  0  0  0  0
 18 19  2  0  0  0  0
 19 14  1  0  0  0  0
M  END
> <Molecule Name>
470

> <CDD Number>
CDD-16012

> <Human_sEH_IC50_uM>
7.6

> <Mouse_sEH_IC50_uM>
0.59

$$$$

SketchEl molfile

 18 18  0  0  0  0  0  0  0  0999 V2000
    0.0000    2.2987    0.0000 C   0  0  0  0  0  0  0  0  0  0  0  0
    1.2124    1.5987    0.0000 C   0  0  0  0  0  0  0  0  0  0  0  0
    2.4249    2.2987    0.0000 C   0  0  0  0  0  0  0  0  0  0  0  0
    2.4249    3.6987    0.0000 C   0  0  0  0  0  0  0  0  0  0  0  0
    1.2124    4.3987    0.0000 C   0  0  0  0  0  0  0  0  0  0  0  0
    0.0000    3.6987    0.0000 C   0  0  0  0  0  0  0  0  0  0  0  0
    3.6373    1.5987    0.0000 N   0  0  0  0  0  0  0  0  0  0  0  0
    4.6273    2.1993    0.0000 C   0  0  0  0  0  0  0  0  0  0  0  0
    5.8397    1.4993    0.0000 N   0  0  0  0  0  0  0  0  0  0  0  0
    4.6273    3.5993    0.0000 O   0  0  0  0  0  0  0  0  0  0  0  0
    6.8296    2.1000    0.0000 C   0  0  0  0  0  0  0  0  0  0  0  0
    8.0421    1.4000    0.0000 C   0  0  0  0  0  0  0  0  0  0  0  0
    9.2545    2.1000    0.0000 O   0  0  0  0  0  0  0  0  0  0  0  0
   10.4669    1.4000    0.0000 C   0  0  0  0  0  0  0  0  0  0  0  0
    8.0421    0.0000    0.0000 O   0  0  0  0  0  0  0  0  0  0  0  0
   11.6794    2.1000    0.0000 C   0  0  0  0  0  0  0  0  0  0  0  0
   11.6794    0.7000    0.0000 C   0  0  0  0  0  0  0  0  0  0  0  0
   10.4669    0.0000    0.0000 C   0  0  0  0  0  0  0  0  0  0  0  0
  1  2  1  0  0  0  0
  2  3  1  0  0  0  0
  3  4  1  0  0  0  0
  4  5  1  0  0  0  0
  5  6  1  0  0  0  0
  6  1  1  0  0  0  0
  3  7  1  0  0  0  0
  7  8  1  0  0  0  0
  8  9  1  0  0  0  0
  8 10  2  0  0  0  0
  9 11  1  0  0  0  0
 11 12  1  0  0  0  0
 12 13  1  0  0  0  0
 13 14  1  0  0  0  0
 12 15  2  0  0  0  0
 14 16  1  0  0  0  0
 14 17  1  0  0  0  0
 14 18  1  0  0  0  0
M  END
> <Molecule Name>
469

> <CDD Number>
CDD-15912

> <Human_sEH_IC50_uM>
19.0

> <Mouse_sEH_IC50_uM>
4.4

$$$$

SketchEl molfile

 16 15  0  0  0  0  0  0  0  0999 V2000
    0.0000    0.0000    0.0000 C   0  0  0  0  0  0  0  0  0  0  0  0
    1.2124    0.7000    0.0000 C   0  0  0  0  0  0  0  0  0  0  0  0
    2.4249    0.0000    0.0000 N   0  0  0  0  0  0  0  0  0  0  0  0
    1.2124    2.1000    0.0000 O   0  0  0  0  0  0  0  0  0  0  0  0
    3.6373    0.7000    0.0000 C   0  0  0  0  0  0  0  0  0  0  0  0
    4.8497    0.0000    0.0000 C   0  0  0  0  0  0  0  0  0  0  0  0
    6.0622    0.7000    0.0000 C   0  0  0  0  0  0  0  0  0  0  0  0
    7.2746    0.0000    0.0000 C   0  0  0  0  0  0  0  0  0  0  0  0
    8.4870    0.7000    0.0000 C   0  0  0  0  0  0  0  0  0  0  0  0
    9.6995    0.0000    0.0000 C   0  0  0  0  0  0  0  0  0  0  0  0
   10.9119    0.7000    0.0000 C   0  0  0  0  0  0  0  0  0  0  0  0
   12.1244    0.0000    0.0000 C   0  0  0  0  0  0  0  0  0  0  0  0
   13.3368    0.7000    0.0000 C   0  0  0  0  0  0  0  0  0  0  0  0
   14.5492    0.0000    0.0000 C   0  0  0  0  0  0  0  0  0  0  0  0
   15.7617    0.7000    0.0000 C   0  0  0  0  0  0  0  0  0  0  0  0
   16.9741    0.0000    0.0000 C   0  0  0  0  0  0  0  0  0  0  0  0
  1  2  1  0  0  0  0
  2  3  1  0  0  0  0
  2  4  2  0  0  0  0
  3  5  1  0  0  0  0
  5  6  1  0  0  0  0
  6  7  1  0  0  0  0
  7  8  1  0  0  0  0
  8  9  1  0  0  0  0
  9 10  1  0  0  0  0
 10 11  1  0  0  0  0
 11 12  1  0  0  0  0
 12 13  1  0  0  0  0
 13 14  1  0  0  0  0
 14 15  1  0  0  0  0
 15 16  1  0  0  0  0
M  END
> <Molecule Name>
468

> <CDD Number>
CDD-16110

> <Human_sEH_IC50_uM>
13.0

> <Mouse_sEH_IC50_uM>
10.6

$$$$

SketchEl molfile

 19 20  0  0  0  0  0  0  0  0999 V2000
    2.4249    3.5000    0.0000 C   0  0  0  0  0  0  0  0  0  0  0  0
    2.4249    2.1000    0.0000 C   0  0  0  0  0  0  0  0  0  0  0  0
    3.6373    1.4000    0.0000 C   0  0  0  0  0  0  0  0  0  0  0  0
    4.8497    2.1000    0.0000 C   0  0  0  0  0  0  0  0  0  0  0  0
    4.8497    3.5000    0.0000 C   0  0  0  0  0  0  0  0  0  0  0  0
    3.6373    4.2000    0.0000 C   0  0  0  0  0  0  0  0  0  0  0  0
    1.2124    1.4000    0.0000 N   0  0  0  0  0  0  0  0  0  0  0  0
    1.2124    0.0000    0.0000 C   0  0  0  0  0  0  0  0  0  0  0  0
    0.0000    2.1000    0.0000 C   0  0  0  0  0  0  0  0  0  0  0  0
    6.0622    4.2000    0.0000 C   0  0  0  0  0  0  0  0  0  0  0  0
    7.4622    4.2000    0.0000 C   0  0  0  0  0  0  0  0  0  0  0  0
    8.6746    4.9000    0.0000 C   0  0  0  0  0  0  0  0  0  0  0  0
    9.8870    4.2000    0.0000 C   0  0  0  0  0  0  0  0  0  0  0  0
    8.6746    6.3000    0.0000 O   0  0  0  0  0  0  0  0  0  0  0  0
    9.8870    2.8000    0.0000 C   0  0  0  0  0  0  0  0  0  0  0  0
   11.0995    2.1000    0.0000 C   0  0  0  0  0  0  0  0  0  0  0  0
   12.3119    2.8000    0.0000 C   0  0  0  0  0  0  0  0  0  0  0  0
   12.3119    4.2000    0.0000 C   0  0  0  0  0  0  0  0  0  0  0  0
   11.0995    4.9000    0.0000 C   0  0  0  0  0  0  0  0  0  0  0  0
  1  2  2  0  0  0  0
  2  3  1  0  0  0  0
  3  4  2  0  0  0  0
  4  5  1  0  0  0  0
  5  6  2  0  0  0  0
  6  1  1  0  0  0  0
  2  7  1  0  0  0  0
  7  8  1  0  0  0  0
  7  9  1  0  0  0  0
  5 10  1  0  0  0  0
 10 11  2  0  0  0  0
 11 12  1  0  0  0  0
 12 13  1  0  0  0  0
 12 14  2  0  0  0  0
 13 15  2  0  0  0  0
 15 16  1  0  0  0  0
 16 17  2  0  0  0  0
 17 18  1  0  0  0  0
 18 19  2  0  0  0  0
 19 13  1  0  0  0  0
M  END
> <Molecule Name>
467

> <CDD Number>
CDD-15652

> <Human_sEH_IC50_uM>
500.0

> <Mouse_sEH_IC50_uM>
500.0

$$$$

SketchEl molfile

 10  9  0  0  0  0  0  0  0  0999 V2000
    0.0000    0.0000    0.0000 C   0  0  0  0  0  0  0  0  0  0  0  0
    1.2124    0.7000    0.0000 C   0  0  0  0  0  0  0  0  0  0  0  0
    2.4249    0.0000    0.0000 S   0  0  0  0  0  0  0  0  0  0  0  0
    3.6373    0.7000    0.0000 C   0  0  0  0  0  0  0  0  0  0  0  0
    4.8497    0.0000    0.0000 N   0  0  0  0  0  0  0  0  0  0  0  0
    3.6373    2.1000    0.0000 O   0  0  0  0  0  0  0  0  0  0  0  0
    6.0622    0.7000    0.0000 C   0  0  0  0  0  0  0  0  0  0  0  0
    7.2746    0.0000    0.0000 C   0  0  0  0  0  0  0  0  0  0  0  0
    8.4870    0.7000    0.0000 C   0  0  0  0  0  0  0  0  0  0  0  0
    9.6995    0.0000    0.0000 O   0  0  0  0  0  0  0  0  0  0  0  0
  1  2  1  0  0  0  0
  2  3  1  0  0  0  0
  3  4  1  0  0  0  0
  4  5  1  0  0  0  0
  4  6  2  0  0  0  0
  5  7  1  0  0  0  0
  7  8  1  0  0  0  0
  8  9  1  0  0  0  0
  9 10  1  0  0  0  0
M  END
> <Molecule Name>
466

> <CDD Number>
CDD-16171

> <Human_sEH_IC50_uM>
500.0

> <Mouse_sEH_IC50_uM>
500.0

$$$$

SketchEl molfile

 12 11  0  0  0  0  0  0  0  0999 V2000
    0.0000    1.4000    0.0000 C   0  0  0  0  0  0  0  0  0  0  0  0
    1.2124    2.1000    0.0000 C   0  0  0  0  0  0  0  0  0  0  0  0
    2.4249    1.4000    0.0000 N   0  0  0  0  0  0  0  0  0  0  0  0
    1.2124    3.5000    0.0000 O   0  0  0  0  0  0  0  0  0  0  0  0
    3.6373    2.1000    0.0000 C   0  0  0  0  0  0  0  0  0  0  0  0
    4.8497    1.4000    0.0000 C   0  0  0  0  0  0  0  0  0  0  0  0
    6.0622    2.1000    0.0000 C   0  0  0  0  0  0  0  0  0  0  0  0
    7.2746    1.4000    0.0000 C   0  0  0  0  0  0  0  0  0  0  0  0
    8.4870    2.1000    0.0000 C   0  0  0  0  0  0  0  0  0  0  0  0
    9.6995    1.4000    0.0000 C   0  0  0  0  0  0  0  0  0  0  0  0
   10.9119    2.1000    0.0000 O   0  0  0  0  0  0  0  0  0  0  0  0
    9.6995    0.0000    0.0000 O   0  0  0  0  0  0  0  0  0  0  0  0
  1  2  1  0  0  0  0
  2  3  1  0  0  0  0
  2  4  2  0  0  0  0
  3  5  1  0  0  0  0
  5  6  1  0  0  0  0
  6  7  1  0  0  0  0
  7  8  1  0  0  0  0
  8  9  1  0  0  0  0
  9 10  1  0  0  0  0
 10 11  1  0  0  0  0
 10 12  2  0  0  0  0
M  END
> <Molecule Name>
465

> <CDD Number>
CDD-15096

> <Human_sEH_IC50_uM>
500.0

> <Mouse_sEH_IC50_uM>
500.0

$$$$

SketchEl molfile

 13 13  0  0  0  0  0  0  0  0999 V2000
    1.4000    1.3118    0.0000 C   0  0  0  0  0  0  0  0  0  0  0  0
    2.1000    0.0993    0.0000 C   0  0  0  0  0  0  0  0  0  0  0  0
    3.5000    0.0993    0.0000 C   0  0  0  0  0  0  0  0  0  0  0  0
    4.2000    1.3118    0.0000 C   0  0  0  0  0  0  0  0  0  0  0  0
    3.5000    2.5242    0.0000 C   0  0  0  0  0  0  0  0  0  0  0  0
    2.1000    2.5242    0.0000 C   0  0  0  0  0  0  0  0  0  0  0  0
    0.0000    1.3118    0.0000 Cl  0  0  0  0  0  0  0  0  0  0  0  0
    5.6000    1.3118    0.0000 C   0  0  0  0  0  0  0  0  0  0  0  0
    6.3000    0.0993    0.0000 N   0  0  0  0  0  0  0  0  0  0  0  0
    7.7000    0.0993    0.0000 N   0  0  0  0  0  0  0  0  0  0  0  0
    8.6899    0.7000    0.0000 C   0  0  0  0  0  0  0  0  0  0  0  0
    9.9024    0.0000    0.0000 N   0  0  0  0  0  0  0  0  0  0  0  0
    8.6899    2.1000    0.0000 O   0  0  0  0  0  0  0  0  0  0  0  0
  1  2  2  0  0  0  0
  2  3  1  0  0  0  0
  3  4  2  0  0  0  0
  4  5  1  0  0  0  0
  5  6  2  0  0  0  0
  6  1  1  0  0  0  0
  1  7  1  0  0  0  0
  4  8  1  0  0  0  0
  8  9  2  0  0  0  0
  9 10  1  0  0  0  0
 10 11  1  0  0  0  0
 11 12  1  0  0  0  0
 11 13  2  0  0  0  0
M  END
> <Molecule Name>
464

> <CDD Number>
CDD-16034

> <Human_sEH_IC50_uM>
500.0

> <Mouse_sEH_IC50_uM>
110.0

$$$$

SketchEl molfile

 19 20  0  0  0  0  0  0  0  0999 V2000
    0.0000    4.2465    0.0000 C   0  0  0  0  0  0  0  0  0  0  0  0
    0.0000    2.8465    0.0000 C   0  0  0  0  0  0  0  0  0  0  0  0
    1.2124    2.1465    0.0000 C   0  0  0  0  0  0  0  0  0  0  0  0
    2.4249    2.8465    0.0000 C   0  0  0  0  0  0  0  0  0  0  0  0
    2.4249    4.2465    0.0000 C   0  0  0  0  0  0  0  0  0  0  0  0
    1.2124    4.9465    0.0000 C   0  0  0  0  0  0  0  0  0  0  0  0
    3.6373    2.1465    0.0000 N   0  0  0  0  0  0  0  0  0  0  0  0
    4.8497    2.8465    0.0000 C   0  0  0  0  0  0  0  0  0  0  0  0
    6.0622    2.1465    0.0000 N   0  0  0  0  0  0  0  0  0  0  0  0
    4.8497    4.2465    0.0000 O   0  0  0  0  0  0  0  0  0  0  0  0
    7.0521    2.7472    0.0000 C   0  0  0  0  0  0  0  0  0  0  0  0
    8.2795    2.0738    0.0000 C   0  0  0  0  0  0  0  0  0  0  0  0
    9.4764    2.8000    0.0000 N   0  0  0  0  0  0  0  0  0  0  0  0
   10.6889    2.1000    0.0000 C   0  0  0  0  0  0  0  0  0  0  0  0
   10.6889    0.7000    0.0000 C   0  0  0  0  0  0  0  0  0  0  0  0
   11.9013    0.0000    0.0000 C   0  0  0  0  0  0  0  0  0  0  0  0
   13.1137    0.7000    0.0000 C   0  0  0  0  0  0  0  0  0  0  0  0
   13.1137    2.1000    0.0000 C   0  0  0  0  0  0  0  0  0  0  0  0
   11.9013    2.8000    0.0000 C   0  0  0  0  0  0  0  0  0  0  0  0
  1  2  1  0  0  0  0
  2  3  1  0  0  0  0
  3  4  1  0  0  0  0
  4  5  1  0  0  0  0
  5  6  1  0  0  0  0
  6  1  1  0  0  0  0
  4  7  1  0  0  0  0
  7  8  1  0  0  0  0
  8  9  1  0  0  0  0
  8 10  2  0  0  0  0
  9 11  1  0  0  0  0
 11 12  1  0  0  0  0
 12 13  1  0  0  0  0
 13 14  1  0  0  0  0
 14 15  2  0  0  0  0
 15 16  1  0  0  0  0
 16 17  2  0  0  0  0
 17 18  1  0  0  0  0
 18 19  2  0  0  0  0
 19 14  1  0  0  0  0
M  END
> <Molecule Name>
463

> <CDD Number>
CDD-15948

> <Human_sEH_IC50_uM>
8.3

> <Mouse_sEH_IC50_uM>
0.9

$$$$

SketchEl molfile

 18 18  0  0  0  0  0  0  0  0999 V2000
    2.4249    2.1728    0.0000 C   0  0  0  0  0  0  0  0  0  0  0  0
    3.6373    1.4728    0.0000 N   0  0  0  0  0  0  0  0  0  0  0  0
    4.8497    2.1728    0.0000 C   0  0  0  0  0  0  0  0  0  0  0  0
    6.0622    1.4728    0.0000 N   0  0  0  0  0  0  0  0  0  0  0  0
    4.8497    3.5728    0.0000 O   0  0  0  0  0  0  0  0  0  0  0  0
    7.0521    2.0734    0.0000 C   0  0  0  0  0  0  0  0  0  0  0  0
    2.4249    3.5728    0.0000 C   0  0  0  0  0  0  0  0  0  0  0  0
    1.2124    4.2728    0.0000 C   0  0  0  0  0  0  0  0  0  0  0  0
    0.0000    3.5728    0.0000 C   0  0  0  0  0  0  0  0  0  0  0  0
    0.0000    2.1728    0.0000 C   0  0  0  0  0  0  0  0  0  0  0  0
    1.2124    1.4728    0.0000 C   0  0  0  0  0  0  0  0  0  0  0  0
    8.2795    1.4000    0.0000 C   0  0  0  0  0  0  0  0  0  0  0  0
    9.4920    2.1000    0.0000 C   0  0  0  0  0  0  0  0  0  0  0  0
   10.7044    1.4000    0.0000 C   0  0  0  0  0  0  0  0  0  0  0  0
   11.9168    2.1000    0.0000 C   0  0  0  0  0  0  0  0  0  0  0  0
   13.1293    1.4000    0.0000 C   0  0  0  0  0  0  0  0  0  0  0  0
   14.3417    2.1000    0.0000 O   0  0  0  0  0  0  0  0  0  0  0  0
   13.1293    0.0000    0.0000 O   0  0  0  0  0  0  0  0  0  0  0  0
  1  2  1  0  0  0  0
  2  3  1  0  0  0  0
  3  4  1  0  0  0  0
  3  5  2  0  0  0  0
  4  6  1  0  0  0  0
  1  7  2  0  0  0  0
  7  8  1  0  0  0  0
  8  9  2  0  0  0  0
  9 10  1  0  0  0  0
 10 11  2  0  0  0  0
 11  1  1  0  0  0  0
  6 12  1  0  0  0  0
 12 13  1  0  0  0  0
 13 14  1  0  0  0  0
 14 15  1  0  0  0  0
 15 16  1  0  0  0  0
 16 17  1  0  0  0  0
 16 18  2  0  0  0  0
M  END
> <Molecule Name>
462

> <CDD Number>
CDD-16000

> <Human_sEH_IC50_uM>
420.0

> <Mouse_sEH_IC50_uM>
180.0

$$$$

SketchEl molfile

 17 18  0  0  0  0  0  0  0  0999 V2000
    0.0000    2.4365    0.0000 C   0  0  0  0  0  0  0  0  0  0  0  0
    0.0000    1.0365    0.0000 C   0  0  0  0  0  0  0  0  0  0  0  0
    1.2124    0.3365    0.0000 C   0  0  0  0  0  0  0  0  0  0  0  0
    2.4249    1.0365    0.0000 C   0  0  0  0  0  0  0  0  0  0  0  0
    2.4249    2.4365    0.0000 C   0  0  0  0  0  0  0  0  0  0  0  0
    1.2124    3.1365    0.0000 C   0  0  0  0  0  0  0  0  0  0  0  0
    3.6373    0.3365    0.0000 N   0  0  0  0  0  0  0  0  0  0  0  0
    4.8497    1.0365    0.0000 C   0  0  0  0  0  0  0  0  0  0  0  0
    6.0622    0.3365    0.0000 N   0  0  0  0  0  0  0  0  0  0  0  0
    4.8497    2.4365    0.0000 O   0  0  0  0  0  0  0  0  0  0  0  0
    7.0521    0.9371    0.0000 C   0  0  0  0  0  0  0  0  0  0  0  0
    8.2795    0.2637    0.0000 C   0  0  0  0  0  0  0  0  0  0  0  0
    9.4764    0.9899    0.0000 C   0  0  0  0  0  0  0  0  0  0  0  0
    9.8388    2.3422    0.0000 C   0  0  0  0  0  0  0  0  0  0  0  0
   11.1911    1.9799    0.0000 N   0  0  0  0  0  0  0  0  0  0  0  0
   11.5534    0.6276    0.0000 C   0  0  0  0  0  0  0  0  0  0  0  0
   10.4664    0.0000    0.0000 N   0  0  0  0  0  0  0  0  0  0  0  0
  1  2  1  0  0  0  0
  2  3  1  0  0  0  0
  3  4  1  0  0  0  0
  4  5  1  0  0  0  0
  5  6  1  0  0  0  0
  6  1  1  0  0  0  0
  4  7  1  0  0  0  0
  7  8  1  0  0  0  0
  8  9  1  0  0  0  0
  8 10  2  0  0  0  0
  9 11  1  0  0  0  0
 11 12  1  0  0  0  0
 12 13  1  0  0  0  0
 13 14  2  0  0  0  0
 14 15  1  0  0  0  0
 15 16  1  0  0  0  0
 13 17  1  0  0  0  0
 17 16  2  0  0  0  0
M  END
> <Molecule Name>
461

> <CDD Number>
CDD-15946

> <Human_sEH_IC50_uM>
0.55

> <Mouse_sEH_IC50_uM>
0.42

$$$$

SketchEl molfile

 23 24  0  0  0  0  0  0  0  0999 V2000
    0.0000    0.7001    0.0000 C   0  0  0  0  0  0  0  0  0  0  0  0
    1.2124    0.0001    0.0000 C   0  0  0  0  0  0  0  0  0  0  0  0
    2.4249    0.7001    0.0000 C   0  0  0  0  0  0  0  0  0  0  0  0
    2.4249    2.1001    0.0000 C   0  0  0  0  0  0  0  0  0  0  0  0
    1.2124    2.8001    0.0000 C   0  0  0  0  0  0  0  0  0  0  0  0
    0.0000    2.1001    0.0000 C   0  0  0  0  0  0  0  0  0  0  0  0
    3.6373    0.0001    0.0000 N   0  0  0  0  0  0  0  0  0  0  0  0
    4.8497    0.7001    0.0000 C   0  0  0  0  0  0  0  0  0  0  0  0
    6.0622    0.0001    0.0000 O   0  0  0  0  0  0  0  0  0  0  0  0
    4.8497    2.1001    0.0000 O   0  0  0  0  0  0  0  0  0  0  0  0
    7.2746    0.7001    0.0000 C   0  0  0  0  0  0  0  0  0  0  0  0
    8.4870    0.0000    0.0000 C   0  0  0  0  0  0  0  0  0  0  0  0
    9.6994    0.7000    0.0000 C   0  0  0  0  0  0  0  0  0  0  0  0
   10.9118    0.0000    0.0000 C   0  0  0  0  0  0  0  0  0  0  0  0
   12.1243    0.7000    0.0000 C   0  0  0  0  0  0  0  0  0  0  0  0
   13.3367    0.0000    0.0000 C   0  0  0  0  0  0  0  0  0  0  0  0
   14.5492    0.7000    0.0000 C   0  0  0  0  0  0  0  0  0  0  0  0
   14.5492    2.1000    0.0000 C   0  0  0  0  0  0  0  0  0  0  0  0
   13.3367    2.8000    0.0000 C   0  0  0  0  0  0  0  0  0  0  0  0
   12.1243    2.1000    0.0000 C   0  0  0  0  0  0  0  0  0  0  0  0
   15.7616    2.8000    0.0000 N   0  3  0  0  0  0  0  0  0  0  0  0
   15.7616    4.2000    0.0000 O   0  0  0  0  0  0  0  0  0  0  0  0
   16.9740    2.1000    0.0000 O   0  5  0  0  0  0  0  0  0  0  0  0
  1  2  1  0  0  0  0
  2  3  1  0  0  0  0
  3  4  1  0  0  0  0
  4  5  1  0  0  0  0
  5  6  1  0  0  0  0
  6  1  1  0  0  0  0
  3  7  1  0  0  0  0
  7  8  1  0  0  0  0
  8  9  1  0  0  0  0
  8 10  2  0  0  0  0
  9 11  1  0  0  0  0
 11 12  1  0  0  0  0
 12 13  1  0  0  0  0
 13 14  1  0  0  0  0
 14 15  1  0  0  0  0
 15 16  2  0  0  0  0
 16 17  1  0  0  0  0
 17 18  2  0  0  0  0
 18 19  1  0  0  0  0
 19 20  2  0  0  0  0
 20 15  1  0  0  0  0
 18 21  1  0  0  0  0
 21 22  2  0  0  0  0
 21 23  1  0  0  0  0
M  CHG  2  21   1  23  -1
M  END
> <Molecule Name>
460

> <CDD Number>
CDD-16093

> <Human_sEH_IC50_uM>
0.18

> <Mouse_sEH_IC50_uM>
0.1

$$$$

SketchEl molfile

 16 17  0  0  0  0  0  0  0  0999 V2000
    2.4249    2.1000    0.0000 C   0  0  0  0  0  0  0  0  0  0  0  0
    3.6373    2.8000    0.0000 C   0  0  0  0  0  0  0  0  0  0  0  0
    4.8497    2.1000    0.0000 N   0  0  0  0  0  0  0  0  0  0  0  0
    3.6373    4.2000    0.0000 O   0  0  0  0  0  0  0  0  0  0  0  0
    6.0622    2.8000    0.0000 C   0  0  0  0  0  0  0  0  0  0  0  0
    7.2746    2.1000    0.0000 C   0  0  0  0  0  0  0  0  0  0  0  0
    7.2746    0.7000    0.0000 C   0  0  0  0  0  0  0  0  0  0  0  0
    8.4870    0.0000    0.0000 C   0  0  0  0  0  0  0  0  0  0  0  0
    9.6995    0.7000    0.0000 C   0  0  0  0  0  0  0  0  0  0  0  0
    9.6995    2.1000    0.0000 C   0  0  0  0  0  0  0  0  0  0  0  0
    8.4870    2.8000    0.0000 C   0  0  0  0  0  0  0  0  0  0  0  0
    1.2124    2.8000    0.0000 C   0  0  0  0  0  0  0  0  0  0  0  0
    0.0000    2.1000    0.0000 C   0  0  0  0  0  0  0  0  0  0  0  0
    0.0000    0.7000    0.0000 C   0  0  0  0  0  0  0  0  0  0  0  0
    1.2124    0.0000    0.0000 C   0  0  0  0  0  0  0  0  0  0  0  0
    2.4249    0.7000    0.0000 C   0  0  0  0  0  0  0  0  0  0  0  0
  1  2  1  0  0  0  0
  2  3  1  0  0  0  0
  2  4  2  0  0  0  0
  3  5  1  0  0  0  0
  5  6  1  0  0  0  0
  6  7  2  0  0  0  0
  7  8  1  0  0  0  0
  8  9  2  0  0  0  0
  9 10  1  0  0  0  0
 10 11  2  0  0  0  0
 11  6  1  0  0  0  0
  1 12  1  0  0  0  0
 12 13  1  0  0  0  0
 13 14  1  0  0  0  0
 14 15  1  0  0  0  0
 15 16  1  0  0  0  0
 16  1  1  0  0  0  0
M  END
> <Molecule Name>
452

> <CDD Number>
CDD-16160

> <Human_sEH_IC50_uM>
22.0

> <Mouse_sEH_IC50_uM>
2.72

$$$$

SketchEl molfile

 21 22  0  0  0  0  0  0  0  0999 V2000
    2.4249    2.1993    0.0000 C   0  0  0  0  0  0  0  0  0  0  0  0
    2.4249    0.7993    0.0000 C   0  0  0  0  0  0  0  0  0  0  0  0
    3.6373    0.0993    0.0000 C   0  0  0  0  0  0  0  0  0  0  0  0
    4.8497    0.7993    0.0000 C   0  0  0  0  0  0  0  0  0  0  0  0
    4.8497    2.1993    0.0000 C   0  0  0  0  0  0  0  0  0  0  0  0
    3.6373    2.8993    0.0000 C   0  0  0  0  0  0  0  0  0  0  0  0
    6.0622    0.0993    0.0000 N   0  0  0  0  0  0  0  0  0  0  0  0
    7.2746    0.7993    0.0000 C   0  0  0  0  0  0  0  0  0  0  0  0
    8.4870    0.0993    0.0000 N   0  0  0  0  0  0  0  0  0  0  0  0
    7.2746    2.1993    0.0000 O   0  0  0  0  0  0  0  0  0  0  0  0
    9.4770    0.7000    0.0000 C   0  0  0  0  0  0  0  0  0  0  0  0
   10.6894    0.0000    0.0000 C   0  0  0  0  0  0  0  0  0  0  0  0
   11.9019    0.7000    0.0000 C   0  0  0  0  0  0  0  0  0  0  0  0
   11.9019    2.1000    0.0000 C   0  0  0  0  0  0  0  0  0  0  0  0
   10.6894    2.8000    0.0000 C   0  0  0  0  0  0  0  0  0  0  0  0
    9.4770    2.1000    0.0000 C   0  0  0  0  0  0  0  0  0  0  0  0
    1.2124    2.8993    0.0000 N   0  3  0  0  0  0  0  0  0  0  0  0
    1.2124    4.2993    0.0000 O   0  0  0  0  0  0  0  0  0  0  0  0
    0.0000    2.1993    0.0000 O   0  5  0  0  0  0  0  0  0  0  0  0
   13.1143    2.8000    0.0000 O   0  0  0  0  0  0  0  0  0  0  0  0
   14.3267    2.1000    0.0000 C   0  0  0  0  0  0  0  0  0  0  0  0
  1  2  2  0  0  0  0
  2  3  1  0  0  0  0
  3  4  2  0  0  0  0
  4  5  1  0  0  0  0
  5  6  2  0  0  0  0
  6  1  1  0  0  0  0
  4  7  1  0  0  0  0
  7  8  1  0  0  0  0
  8  9  1  0  0  0  0
  8 10  2  0  0  0  0
  9 11  1  0  0  0  0
 11 12  2  0  0  0  0
 12 13  1  0  0  0  0
 13 14  2  0  0  0  0
 14 15  1  0  0  0  0
 15 16  2  0  0  0  0
 16 11  1  0  0  0  0
  1 17  1  0  0  0  0
 14 20  1  0  0  0  0
 20 21  1  0  0  0  0
 17 18  2  0  0  0  0
 17 19  1  0  0  0  0
M  CHG  2  17   1  19  -1
M  END
> <Molecule Name>
444

> <CDD Number>
CDD-16052

> <Human_sEH_IC50_uM>
14.0

> <Mouse_sEH_IC50_uM>
120.0

$$$$

SketchEl molfile

 22 23  0  0  0  0  0  0  0  0999 V2000
    2.4249    2.1993    0.0000 C   0  0  0  0  0  0  0  0  0  0  0  0
    2.4249    0.7993    0.0000 C   0  0  0  0  0  0  0  0  0  0  0  0
    3.6373    0.0993    0.0000 C   0  0  0  0  0  0  0  0  0  0  0  0
    4.8497    0.7993    0.0000 C   0  0  0  0  0  0  0  0  0  0  0  0
    4.8497    2.1993    0.0000 C   0  0  0  0  0  0  0  0  0  0  0  0
    3.6373    2.8993    0.0000 C   0  0  0  0  0  0  0  0  0  0  0  0
    6.0622    0.0993    0.0000 N   0  0  0  0  0  0  0  0  0  0  0  0
    7.2746    0.7993    0.0000 C   0  0  0  0  0  0  0  0  0  0  0  0
    8.4870    0.0993    0.0000 N   0  0  0  0  0  0  0  0  0  0  0  0
    7.2746    2.1993    0.0000 O   0  0  0  0  0  0  0  0  0  0  0  0
    9.4770    0.7000    0.0000 C   0  0  0  0  0  0  0  0  0  0  0  0
   10.6894    0.0000    0.0000 C   0  0  0  0  0  0  0  0  0  0  0  0
   11.9019    0.7000    0.0000 C   0  0  0  0  0  0  0  0  0  0  0  0
   11.9019    2.1000    0.0000 C   0  0  0  0  0  0  0  0  0  0  0  0
   10.6894    2.8000    0.0000 C   0  0  0  0  0  0  0  0  0  0  0  0
    9.4770    2.1000    0.0000 C   0  0  0  0  0  0  0  0  0  0  0  0
   13.1143    2.8000    0.0000 N   0  0  0  0  0  0  0  0  0  0  0  0
   14.3267    2.1000    0.0000 C   0  0  0  0  0  0  0  0  0  0  0  0
    1.2124    2.8993    0.0000 N   0  3  0  0  0  0  0  0  0  0  0  0
    1.2124    4.2993    0.0000 O   0  0  0  0  0  0  0  0  0  0  0  0
    0.0000    2.1993    0.0000 O   0  5  0  0  0  0  0  0  0  0  0  0
   13.1143    4.2000    0.0000 C   0  0  0  0  0  0  0  0  0  0  0  0
  1  2  2  0  0  0  0
  2  3  1  0  0  0  0
  3  4  2  0  0  0  0
  4  5  1  0  0  0  0
  5  6  2  0  0  0  0
  6  1  1  0  0  0  0
  4  7  1  0  0  0  0
  7  8  1  0  0  0  0
  8  9  1  0  0  0  0
  8 10  2  0  0  0  0
  9 11  1  0  0  0  0
 11 12  2  0  0  0  0
 12 13  1  0  0  0  0
 13 14  2  0  0  0  0
 14 15  1  0  0  0  0
 15 16  2  0  0  0  0
 16 11  1  0  0  0  0
 14 17  1  0  0  0  0
 17 18  1  0  0  0  0
  1 19  1  0  0  0  0
 17 22  1  0  0  0  0
 19 20  2  0  0  0  0
 19 21  1  0  0  0  0
M  CHG  2  19   1  21  -1
M  END
> <Molecule Name>
443

> <CDD Number>
CDD-16051

> <Human_sEH_IC50_uM>
220.0

> <Mouse_sEH_IC50_uM>
130.0

$$$$

SketchEl molfile

 19 20  0  0  0  0  0  0  0  0999 V2000
    0.0000    2.8000    0.0000 C   0  0  0  0  0  0  0  0  0  0  0  0
    1.2124    2.1000    0.0000 C   0  0  0  0  0  0  0  0  0  0  0  0
    2.4249    2.8000    0.0000 C   0  0  0  0  0  0  0  0  0  0  0  0
    2.4249    4.2000    0.0000 C   0  0  0  0  0  0  0  0  0  0  0  0
    1.2124    4.9000    0.0000 C   0  0  0  0  0  0  0  0  0  0  0  0
    0.0000    4.2000    0.0000 C   0  0  0  0  0  0  0  0  0  0  0  0
    3.6373    2.1000    0.0000 O   0  0  0  0  0  0  0  0  0  0  0  0
    4.8497    2.8000    0.0000 C   0  0  0  0  0  0  0  0  0  0  0  0
    6.0622    2.1000    0.0000 N   0  0  0  0  0  0  0  0  0  0  0  0
    4.8497    4.2000    0.0000 O   0  0  0  0  0  0  0  0  0  0  0  0
    7.2746    2.8000    0.0000 C   0  0  0  0  0  0  0  0  0  0  0  0
    8.4870    2.1000    0.0000 C   0  0  0  0  0  0  0  0  0  0  0  0
    9.6995    2.8000    0.0000 C   0  0  0  0  0  0  0  0  0  0  0  0
   10.9119    2.1000    0.0000 C   0  0  0  0  0  0  0  0  0  0  0  0
   10.9119    0.7000    0.0000 C   0  0  0  0  0  0  0  0  0  0  0  0
   12.1244    0.0000    0.0000 C   0  0  0  0  0  0  0  0  0  0  0  0
   13.3368    0.7000    0.0000 C   0  0  0  0  0  0  0  0  0  0  0  0
   13.3368    2.1000    0.0000 C   0  0  0  0  0  0  0  0  0  0  0  0
   12.1244    2.8000    0.0000 C   0  0  0  0  0  0  0  0  0  0  0  0
  1  2  2  0  0  0  0
  2  3  1  0  0  0  0
  3  4  2  0  0  0  0
  4  5  1  0  0  0  0
  5  6  2  0  0  0  0
  6  1  1  0  0  0  0
  3  7  1  0  0  0  0
  7  8  1  0  0  0  0
  8  9  1  0  0  0  0
  8 10  2  0  0  0  0
  9 11  1  0  0  0  0
 11 12  1  0  0  0  0
 12 13  1  0  0  0  0
 13 14  1  0  0  0  0
 14 15  2  0  0  0  0
 15 16  1  0  0  0  0
 16 17  2  0  0  0  0
 17 18  1  0  0  0  0
 18 19  2  0  0  0  0
 19 14  1  0  0  0  0
M  END
> <Molecule Name>
442

> <CDD Number>
CDD-16105

> <Human_sEH_IC50_uM>
15.3

> <Mouse_sEH_IC50_uM>
13.0

$$$$

SketchEl molfile

 19 20  0  0  0  0  0  0  0  0999 V2000
    0.0000    2.8004    0.0000 C   0  0  0  0  0  0  0  0  0  0  0  0
    1.2124    2.1004    0.0000 C   0  0  0  0  0  0  0  0  0  0  0  0
    2.4249    2.8004    0.0000 C   0  0  0  0  0  0  0  0  0  0  0  0
    2.4249    4.2004    0.0000 C   0  0  0  0  0  0  0  0  0  0  0  0
    1.2124    4.9004    0.0000 C   0  0  0  0  0  0  0  0  0  0  0  0
    0.0000    4.2004    0.0000 C   0  0  0  0  0  0  0  0  0  0  0  0
    3.6373    2.1004    0.0000 N   0  0  0  0  0  0  0  0  0  0  0  0
    4.8497    2.8004    0.0000 C   0  0  0  0  0  0  0  0  0  0  0  0
    6.0622    2.1004    0.0000 O   0  0  0  0  0  0  0  0  0  0  0  0
    4.8497    4.2004    0.0000 O   0  0  0  0  0  0  0  0  0  0  0  0
    7.2746    2.8004    0.0000 C   0  0  0  0  0  0  0  0  0  0  0  0
    8.4870    2.1003    0.0000 C   0  0  0  0  0  0  0  0  0  0  0  0
    9.6995    2.8001    0.0000 C   0  0  0  0  0  0  0  0  0  0  0  0
   10.9118    2.1000    0.0000 C   0  0  0  0  0  0  0  0  0  0  0  0
   10.9118    0.7000    0.0000 C   0  0  0  0  0  0  0  0  0  0  0  0
   12.1243    0.0000    0.0000 C   0  0  0  0  0  0  0  0  0  0  0  0
   13.3367    0.7000    0.0000 C   0  0  0  0  0  0  0  0  0  0  0  0
   13.3367    2.1000    0.0000 C   0  0  0  0  0  0  0  0  0  0  0  0
   12.1243    2.8000    0.0000 C   0  0  0  0  0  0  0  0  0  0  0  0
  1  2  1  0  0  0  0
  2  3  1  0  0  0  0
  3  4  1  0  0  0  0
  4  5  1  0  0  0  0
  5  6  1  0  0  0  0
  6  1  1  0  0  0  0
  3  7  1  0  0  0  0
  7  8  1  0  0  0  0
  8  9  1  0  0  0  0
  8 10  2  0  0  0  0
  9 11  1  0  0  0  0
 11 12  1  0  0  0  0
 12 13  1  0  0  0  0
 13 14  1  0  0  0  0
 14 15  2  0  0  0  0
 15 16  1  0  0  0  0
 16 17  2  0  0  0  0
 17 18  1  0  0  0  0
 18 19  2  0  0  0  0
 19 14  1  0  0  0  0
M  END
> <Molecule Name>
441

> <CDD Number>
CDD-16089

> <Human_sEH_IC50_uM>
1.3

> <Mouse_sEH_IC50_uM>
7.2

$$$$

SketchEl molfile

  8  8  0  0  0  0  0  0  0  0999 V2000
    1.2124    2.1000    0.0000 C   0  0  0  0  0  0  0  0  0  0  0  0
    2.6124    2.1000    0.0000 C   0  0  0  0  0  0  0  0  0  0  0  0
    1.9124    3.3124    0.0000 O   0  0  0  0  0  0  0  0  0  0  0  0
    3.8249    1.4000    0.0000 C   0  0  0  0  0  0  0  0  0  0  0  0
    5.0373    2.1000    0.0000 C   0  0  0  0  0  0  0  0  0  0  0  0
    3.8249    0.0000    0.0000 O   0  0  0  0  0  0  0  0  0  0  0  0
    0.5124    0.8876    0.0000 C   0  0  0  0  0  0  0  0  0  0  0  0
    0.0000    1.4000    0.0000 C   0  0  0  0  0  0  0  0  0  0  0  0
  1  2  1  0  0  0  0
  1  3  1  0  0  0  0
  2  3  1  0  0  0  0
  2  4  1  0  0  0  0
  4  5  1  0  0  0  0
  4  6  2  0  0  0  0
  1  7  1  0  0  0  0
  1  8  1  0  0  0  0
M  END
> <Molecule Name>
440

> <CDD Number>
CDD-15651

> <Human_sEH_IC50_uM>
500.0

> <Mouse_sEH_IC50_uM>
500.0

$$$$

SketchEl molfile

 11 12  0  0  0  0  0  0  0  0999 V2000
    1.3523    2.7523    0.0000 C   0  0  0  0  0  0  0  0  0  0  0  0
    1.3523    1.3523    0.0000 C   0  0  0  0  0  0  0  0  0  0  0  0
    2.5647    0.6523    0.0000 C   0  0  0  0  0  0  0  0  0  0  0  0
    3.7772    1.3523    0.0000 C   0  0  0  0  0  0  0  0  0  0  0  0
    3.7772    2.7523    0.0000 C   0  0  0  0  0  0  0  0  0  0  0  0
    2.5647    3.4523    0.0000 C   0  0  0  0  0  0  0  0  0  0  0  0
    1.3523    4.1523    0.0000 C   0  0  0  0  0  0  0  0  0  0  0  0
    3.7772    4.1523    0.0000 O   0  0  0  0  0  0  0  0  0  0  0  0
    4.9896    0.6523    0.0000 O   0  0  0  0  0  0  0  0  0  0  0  0
    0.9899    0.0000    0.0000 C   0  0  0  0  0  0  0  0  0  0  0  0
    0.0000    0.9899    0.0000 C   0  0  0  0  0  0  0  0  0  0  0  0
  1  2  1  0  0  0  0
  2  3  1  0  0  0  0
  3  4  1  0  0  0  0
  4  5  1  0  0  0  0
  5  6  1  0  0  0  0
  6  1  1  0  0  0  0
  6  7  1  0  0  0  0
  6  8  1  0  0  0  0
  5  8  1  0  0  0  0
  4  9  2  0  0  0  0
  2 10  1  0  0  0  0
  2 11  1  0  0  0  0
M  END
> <Molecule Name>
439

> <CDD Number>
CDD-15650

> <Human_sEH_IC50_uM>
500.0

> <Mouse_sEH_IC50_uM>
500.0

$$$$

SketchEl molfile

 23 26  0  0  0  0  0  0  0  0999 V2000
    0.9900    3.5134    0.0000 C   0  0  0  0  0  0  0  0  0  0  0  0
    0.0000    2.5234    0.0000 C   0  0  0  0  0  0  0  0  0  0  0  0
    1.3998    2.5234    0.0000 C   0  0  0  0  0  0  0  0  0  0  0  0
    2.6161    1.8301    0.0000 C   0  0  0  0  0  0  0  0  0  0  0  0
    3.6062    2.8199    0.0000 C   0  0  0  0  0  0  0  0  0  0  0  0
    2.2063    2.8199    0.0000 C   0  0  0  0  0  0  0  0  0  0  0  0
    3.6062    4.2199    0.0000 C   0  0  0  0  0  0  0  0  0  0  0  0
    1.3998    3.9234    0.0000 C   0  0  0  0  0  0  0  0  0  0  0  0
    0.9900    4.9134    0.0000 C   0  0  0  0  0  0  0  0  0  0  0  0
    2.3898    4.9134    0.0000 C   0  0  0  0  0  0  0  0  0  0  0  0
    4.8186    2.1199    0.0000 N   0  0  0  0  0  0  0  0  0  0  0  0
    6.0311    2.8199    0.0000 C   0  0  0  0  0  0  0  0  0  0  0  0
    7.2435    2.1199    0.0000 N   0  0  0  0  0  0  0  0  0  0  0  0
    6.0311    4.2199    0.0000 O   0  0  0  0  0  0  0  0  0  0  0  0
    8.2334    2.7206    0.0000 C   0  0  0  0  0  0  0  0  0  0  0  0
    9.4608    2.0472    0.0000 C   0  0  0  0  0  0  0  0  0  0  0  0
   10.6577    2.7734    0.0000 C   0  0  0  0  0  0  0  0  0  0  0  0
   11.8851    2.1000    0.0000 C   0  0  0  0  0  0  0  0  0  0  0  0
   11.8851    0.7000    0.0000 C   0  0  0  0  0  0  0  0  0  0  0  0
   13.0976    0.0000    0.0000 C   0  0  0  0  0  0  0  0  0  0  0  0
   14.3100    0.7000    0.0000 C   0  0  0  0  0  0  0  0  0  0  0  0
   14.3100    2.1000    0.0000 C   0  0  0  0  0  0  0  0  0  0  0  0
   13.0976    2.8000    0.0000 C   0  0  0  0  0  0  0  0  0  0  0  0
  1  2  1  0  0  0  0
  2  3  1  0  0  0  0
  3  4  1  0  0  0  0
  4  5  1  0  0  0  0
  5  6  1  0  0  0  0
  6  1  1  0  0  0  0
  5  7  1  0  0  0  0
  3  8  1  0  0  0  0
  1  9  1  0  0  0  0
  8 10  1  0  0  0  0
  7 10  1  0  0  0  0
  9 10  1  0  0  0  0
  5 11  1  0  0  0  0
 11 12  1  0  0  0  0
 12 13  1  0  0  0  0
 12 14  2  0  0  0  0
 13 15  1  0  0  0  0
 15 16  1  0  0  0  0
 16 17  1  0  0  0  0
 17 18  1  0  0  0  0
 18 19  2  0  0  0  0
 19 20  1  0  0  0  0
 20 21  2  0  0  0  0
 21 22  1  0  0  0  0
 22 23  2  0  0  0  0
 23 18  1  0  0  0  0
M  END
> <Molecule Name>
438

> <CDD Number>
CDD-15996

> <Human_sEH_IC50_uM>
0.1

> <Mouse_sEH_IC50_uM>
0.05

$$$$

SketchEl molfile

 21 24  0  0  0  0  0  0  0  0999 V2000
    8.4870    2.8000    0.0000 C   0  0  0  0  0  0  0  0  0  0  0  0
    9.1870    1.5876    0.0000 C   0  0  0  0  0  0  0  0  0  0  0  0
   10.5414    1.9424    0.0000 C   0  0  0  0  0  0  0  0  0  0  0  0
   11.8875    1.5876    0.0000 C   0  0  0  0  0  0  0  0  0  0  0  0
   11.1876    2.8000    0.0000 C   0  0  0  0  0  0  0  0  0  0  0  0
    9.8331    2.4453    0.0000 C   0  0  0  0  0  0  0  0  0  0  0  0
    8.4870    4.2000    0.0000 C   0  0  0  0  0  0  0  0  0  0  0  0
   11.1876    4.2000    0.0000 C   0  0  0  0  0  0  0  0  0  0  0  0
   10.5414    3.3424    0.0000 C   0  0  0  0  0  0  0  0  0  0  0  0
    9.8414    4.5548    0.0000 C   0  0  0  0  0  0  0  0  0  0  0  0
    7.2746    2.1000    0.0000 N   0  0  0  0  0  0  0  0  0  0  0  0
    6.0622    2.8000    0.0000 C   0  0  0  0  0  0  0  0  0  0  0  0
    4.8497    2.1000    0.0000 N   0  0  0  0  0  0  0  0  0  0  0  0
    6.0622    4.2000    0.0000 O   0  0  0  0  0  0  0  0  0  0  0  0
    3.6373    2.8000    0.0000 C   0  0  0  0  0  0  0  0  0  0  0  0
    2.4249    2.1000    0.0000 C   0  0  0  0  0  0  0  0  0  0  0  0
    1.2124    2.8000    0.0000 C   0  0  0  0  0  0  0  0  0  0  0  0
    0.0000    2.1000    0.0000 C   0  0  0  0  0  0  0  0  0  0  0  0
    0.0000    0.7000    0.0000 C   0  0  0  0  0  0  0  0  0  0  0  0
    1.2124    0.0000    0.0000 C   0  0  0  0  0  0  0  0  0  0  0  0
    2.4249    0.7000    0.0000 C   0  0  0  0  0  0  0  0  0  0  0  0
  1  2  1  0  0  0  0
  2  3  1  0  0  0  0
  3  4  1  0  0  0  0
  4  5  1  0  0  0  0
  5  6  1  0  0  0  0
  6  1  1  0  0  0  0
  1  7  1  0  0  0  0
  5  8  1  0  0  0  0
  3  9  1  0  0  0  0
  9 10  1  0  0  0  0
  7 10  1  0  0  0  0
  8 10  1  0  0  0  0
  1 11  1  0  0  0  0
 11 12  1  0  0  0  0
 12 13  1  0  0  0  0
 12 14  2  0  0  0  0
 13 15  1  0  0  0  0
 15 16  1  0  0  0  0
 16 17  1  0  0  0  0
 17 18  1  0  0  0  0
 18 19  1  0  0  0  0
 19 20  1  0  0  0  0
 20 21  1  0  0  0  0
 21 16  1  0  0  0  0
M  END
> <Molecule Name>
437

> <CDD Number>
CDD-15964

> <Human_sEH_IC50_uM>
0.1

> <Mouse_sEH_IC50_uM>
0.05

$$$$

SketchEl molfile

 12 11  0  0  0  0  0  0  0  0999 V2000
    0.8999    0.0000    0.0000 C   0  0  0  0  0  0  0  0  0  0  0  0
    1.3787    1.3156    0.0000 C   0  0  0  0  0  0  0  0  0  0  0  0
    0.0000    1.5587    0.0000 C   0  0  0  0  0  0  0  0  0  0  0  0
    1.3787    2.7156    0.0000 C   0  0  0  0  0  0  0  0  0  0  0  0
    2.5912    0.6156    0.0000 C   0  0  0  0  0  0  0  0  0  0  0  0
    3.8036    1.3156    0.0000 C   0  0  0  0  0  0  0  0  0  0  0  0
    2.9037    2.3880    0.0000 C   0  0  0  0  0  0  0  0  0  0  0  0
    4.7035    2.3880    0.0000 C   0  0  0  0  0  0  0  0  0  0  0  0
    5.0160    0.6156    0.0000 N   0  0  0  0  0  0  0  0  0  0  0  0
    6.2285    1.3156    0.0000 C   0  0  0  0  0  0  0  0  0  0  0  0
    7.4409    0.6156    0.0000 N   0  0  0  0  0  0  0  0  0  0  0  0
    6.2285    2.7156    0.0000 O   0  0  0  0  0  0  0  0  0  0  0  0
  1  2  1  0  0  0  0
  2  3  1  0  0  0  0
  2  4  1  0  0  0  0
  2  5  1  0  0  0  0
  5  6  1  0  0  0  0
  6  7  1  0  0  0  0
  6  8  1  0  0  0  0
  6  9  1  0  0  0  0
  9 10  1  0  0  0  0
 10 11  1  0  0  0  0
 10 12  2  0  0  0  0
M  END
> <Molecule Name>
436

> <CDD Number>
CDD-15802

> <Human_sEH_IC50_uM>
500.0

> <Mouse_sEH_IC50_uM>
500.0

$$$$

SketchEl molfile

 18 19  0  0  0  0  0  0  0  0999 V2000
    7.2746    2.1000    0.0000 C   0  0  0  0  0  0  0  0  0  0  0  0
    6.0622    1.4000    0.0000 N   0  0  0  0  0  0  0  0  0  0  0  0
    4.8497    2.1000    0.0000 C   0  0  0  0  0  0  0  0  0  0  0  0
    3.6373    1.4000    0.0000 N   0  0  0  0  0  0  0  0  0  0  0  0
    4.8497    3.5000    0.0000 O   0  0  0  0  0  0  0  0  0  0  0  0
    2.4249    2.1000    0.0000 C   0  0  0  0  0  0  0  0  0  0  0  0
    2.4249    3.5000    0.0000 C   0  0  0  0  0  0  0  0  0  0  0  0
    1.2124    4.2000    0.0000 C   0  0  0  0  0  0  0  0  0  0  0  0
    0.0000    3.5000    0.0000 C   0  0  0  0  0  0  0  0  0  0  0  0
    0.0000    2.1000    0.0000 C   0  0  0  0  0  0  0  0  0  0  0  0
    1.2124    1.4000    0.0000 C   0  0  0  0  0  0  0  0  0  0  0  0
    8.4870    1.4000    0.0000 C   0  0  0  0  0  0  0  0  0  0  0  0
    9.6995    2.1000    0.0000 C   0  0  0  0  0  0  0  0  0  0  0  0
    9.6995    3.5000    0.0000 C   0  0  0  0  0  0  0  0  0  0  0  0
    8.4870    4.2000    0.0000 C   0  0  0  0  0  0  0  0  0  0  0  0
    7.2746    3.5000    0.0000 C   0  0  0  0  0  0  0  0  0  0  0  0
    6.0622    4.2000    0.0000 C   0  0  0  0  0  0  0  0  0  0  0  0
    8.4870    0.0000    0.0000 C   0  0  0  0  0  0  0  0  0  0  0  0
  1  2  1  0  0  0  0
  2  3  1  0  0  0  0
  3  4  1  0  0  0  0
  3  5  2  0  0  0  0
  4  6  1  0  0  0  0
  6  7  1  0  0  0  0
  7  8  1  0  0  0  0
  8  9  1  0  0  0  0
  9 10  1  0  0  0  0
 10 11  1  0  0  0  0
 11  6  1  0  0  0  0
  1 12  2  0  0  0  0
 12 13  1  0  0  0  0
 13 14  2  0  0  0  0
 14 15  1  0  0  0  0
 15 16  2  0  0  0  0
 16  1  1  0  0  0  0
 16 17  1  0  0  0  0
 12 18  1  0  0  0  0
M  END
> <Molecule Name>
435

> <CDD Number>
CDD-15958

> <Human_sEH_IC50_uM>
0.18

> <Mouse_sEH_IC50_uM>
0.05

$$$$

SketchEl molfile

 20 22  0  0  0  0  0  0  0  0999 V2000
    7.2746    2.8000    0.0000 C   0  0  0  0  0  0  0  0  0  0  0  0
    6.0622    2.1000    0.0000 N   0  0  0  0  0  0  0  0  0  0  0  0
    4.8497    2.8000    0.0000 C   0  0  0  0  0  0  0  0  0  0  0  0
    3.6373    2.1000    0.0000 N   0  0  0  0  0  0  0  0  0  0  0  0
    4.8497    4.2000    0.0000 O   0  0  0  0  0  0  0  0  0  0  0  0
    2.4249    2.8000    0.0000 C   0  0  0  0  0  0  0  0  0  0  0  0
    2.4249    4.2000    0.0000 C   0  0  0  0  0  0  0  0  0  0  0  0
    1.2124    4.9000    0.0000 C   0  0  0  0  0  0  0  0  0  0  0  0
    0.0000    4.2000    0.0000 C   0  0  0  0  0  0  0  0  0  0  0  0
    0.0000    2.8000    0.0000 C   0  0  0  0  0  0  0  0  0  0  0  0
    1.2124    2.1000    0.0000 C   0  0  0  0  0  0  0  0  0  0  0  0
    8.4870    2.1000    0.0000 C   0  0  0  0  0  0  0  0  0  0  0  0
    9.6995    2.8000    0.0000 C   0  0  0  0  0  0  0  0  0  0  0  0
    9.6995    4.2000    0.0000 C   0  0  0  0  0  0  0  0  0  0  0  0
    8.4870    4.9000    0.0000 C   0  0  0  0  0  0  0  0  0  0  0  0
    7.2746    4.2000    0.0000 C   0  0  0  0  0  0  0  0  0  0  0  0
    8.4870    0.7000    0.0000 C   0  0  0  0  0  0  0  0  0  0  0  0
    9.6995    0.0000    0.0000 C   0  0  0  0  0  0  0  0  0  0  0  0
   10.9119    0.7000    0.0000 C   0  0  0  0  0  0  0  0  0  0  0  0
   10.9119    2.1000    0.0000 C   0  0  0  0  0  0  0  0  0  0  0  0
  1  2  1  0  0  0  0
  2  3  1  0  0  0  0
  3  4  1  0  0  0  0
  3  5  2  0  0  0  0
  4  6  1  0  0  0  0
  6  7  1  0  0  0  0
  7  8  1  0  0  0  0
  8  9  1  0  0  0  0
  9 10  1  0  0  0  0
 10 11  1  0  0  0  0
 11  6  1  0  0  0  0
  1 12  1  0  0  0  0
 12 13  1  0  0  0  0
 13 14  1  0  0  0  0
 14 15  1  0  0  0  0
 15 16  1  0  0  0  0
 16  1  1  0  0  0  0
 12 17  2  0  0  0  0
 17 18  1  0  0  0  0
 18 19  2  0  0  0  0
 19 20  1  0  0  0  0
 20 13  2  0  0  0  0
M  END
> <Molecule Name>
434

> <CDD Number>
CDD-15972

> <Human_sEH_IC50_uM>
0.1

> <Mouse_sEH_IC50_uM>
0.05

$$$$

SketchEl molfile

 19 18  0  0  0  0  0  0  0  0999 V2000
   10.9119    0.7728    0.0000 C   0  0  0  0  0  0  0  0  0  0  0  0
   12.1244    0.0728    0.0000 C   0  0  0  0  0  0  0  0  0  0  0  0
   13.3368    0.7728    0.0000 C   0  0  0  0  0  0  0  0  0  0  0  0
   14.5492    0.0728    0.0000 N   0  0  0  0  0  0  0  0  0  0  0  0
   15.7617    0.7728    0.0000 C   0  0  0  0  0  0  0  0  0  0  0  0
   16.9741    0.0728    0.0000 N   0  0  0  0  0  0  0  0  0  0  0  0
   15.7617    2.1728    0.0000 O   0  0  0  0  0  0  0  0  0  0  0  0
    9.6995    0.0728    0.0000 C   0  0  0  0  0  0  0  0  0  0  0  0
    8.4870    0.7728    0.0000 C   0  0  0  0  0  0  0  0  0  0  0  0
    7.2746    0.0728    0.0000 C   0  0  0  0  0  0  0  0  0  0  0  0
    6.0622    0.7728    0.0000 C   0  0  0  0  0  0  0  0  0  0  0  0
    4.8497    0.0728    0.0000 C   0  0  0  0  0  0  0  0  0  0  0  0
    3.6373    0.7728    0.0000 C   0  0  0  0  0  0  0  0  0  0  0  0
    2.4249    0.0728    0.0000 C   0  0  0  0  0  0  0  0  0  0  0  0
    1.2124    0.7728    0.0000 C   0  0  0  0  0  0  0  0  0  0  0  0
    0.0000    0.0728    0.0000 C   0  0  0  0  0  0  0  0  0  0  0  0
   17.9640    0.6734    0.0000 C   0  0  0  0  0  0  0  0  0  0  0  0
   19.1914    0.0000    0.0000 C   0  0  0  0  0  0  0  0  0  0  0  0
   20.3883    0.7262    0.0000 C   0  0  0  0  0  0  0  0  0  0  0  0
  1  2  1  0  0  0  0
  2  3  1  0  0  0  0
  3  4  1  0  0  0  0
  4  5  1  0  0  0  0
  5  6  1  0  0  0  0
  5  7  2  0  0  0  0
  1  8  1  0  0  0  0
  8  9  1  0  0  0  0
  9 10  1  0  0  0  0
 10 11  1  0  0  0  0
 11 12  1  0  0  0  0
 12 13  1  0  0  0  0
 13 14  1  0  0  0  0
 14 15  1  0  0  0  0
 15 16  1  0  0  0  0
  6 17  1  0  0  0  0
 17 18  1  0  0  0  0
 18 19  1  0  0  0  0
M  END
> <Molecule Name>
433

> <CDD Number>
CDD-15839

> <Human_sEH_IC50_uM>
500.0

> <Mouse_sEH_IC50_uM>
500.0

$$$$

SketchEl molfile

 13 13  0  0  0  0  0  0  0  0999 V2000
    0.0000    0.8987    0.0000 C   0  0  0  0  0  0  0  0  0  0  0  0
    1.2124    0.1987    0.0000 C   0  0  0  0  0  0  0  0  0  0  0  0
    2.4249    0.8987    0.0000 C   0  0  0  0  0  0  0  0  0  0  0  0
    2.4249    2.2987    0.0000 C   0  0  0  0  0  0  0  0  0  0  0  0
    1.2124    2.9987    0.0000 C   0  0  0  0  0  0  0  0  0  0  0  0
    0.0000    2.2987    0.0000 C   0  0  0  0  0  0  0  0  0  0  0  0
    3.6373    0.1987    0.0000 N   0  0  0  0  0  0  0  0  0  0  0  0
    4.6273    0.7993    0.0000 C   0  0  0  0  0  0  0  0  0  0  0  0
    5.8397    0.0993    0.0000 N   0  0  0  0  0  0  0  0  0  0  0  0
    4.6273    2.1993    0.0000 O   0  0  0  0  0  0  0  0  0  0  0  0
    6.8296    0.7000    0.0000 C   0  0  0  0  0  0  0  0  0  0  0  0
    8.0421    0.0000    0.0000 C   0  0  0  0  0  0  0  0  0  0  0  0
    9.4421    0.0000    0.0000 C   0  0  0  0  0  0  0  0  0  0  0  0
  1  2  1  0  0  0  0
  2  3  1  0  0  0  0
  3  4  1  0  0  0  0
  4  5  1  0  0  0  0
  5  6  1  0  0  0  0
  6  1  1  0  0  0  0
  3  7  1  0  0  0  0
  7  8  1  0  0  0  0
  8  9  1  0  0  0  0
  8 10  2  0  0  0  0
  9 11  1  0  0  0  0
 11 12  1  0  0  0  0
 12 13  3  0  0  0  0
M  END
> <Molecule Name>
432

> <CDD Number>
CDD-15901

> <Human_sEH_IC50_uM>
82.0

> <Mouse_sEH_IC50_uM>
52.0

$$$$

SketchEl molfile

 19 20  0  0  0  0  0  0  0  0999 V2000
    0.0000    4.2000    0.0000 C   0  0  0  0  0  0  0  0  0  0  0  0
    0.0000    2.8000    0.0000 C   0  0  0  0  0  0  0  0  0  0  0  0
    1.2124    2.1000    0.0000 C   0  0  0  0  0  0  0  0  0  0  0  0
    2.4249    2.8000    0.0000 C   0  0  0  0  0  0  0  0  0  0  0  0
    2.4249    4.2000    0.0000 C   0  0  0  0  0  0  0  0  0  0  0  0
    1.2124    4.9000    0.0000 C   0  0  0  0  0  0  0  0  0  0  0  0
    3.6373    2.1000    0.0000 C   0  0  0  0  0  0  0  0  0  0  0  0
    4.8497    2.8000    0.0000 C   0  0  0  0  0  0  0  0  0  0  0  0
    6.0622    2.1000    0.0000 N   0  0  0  0  0  0  0  0  0  0  0  0
    4.8497    4.2000    0.0000 O   0  0  0  0  0  0  0  0  0  0  0  0
    7.2746    2.8000    0.0000 C   0  0  0  0  0  0  0  0  0  0  0  0
    8.4870    2.1000    0.0000 C   0  0  0  0  0  0  0  0  0  0  0  0
    9.6995    2.8000    0.0000 C   0  0  0  0  0  0  0  0  0  0  0  0
   10.9119    2.1000    0.0000 C   0  0  0  0  0  0  0  0  0  0  0  0
   10.9119    0.7000    0.0000 C   0  0  0  0  0  0  0  0  0  0  0  0
   12.1244    0.0000    0.0000 C   0  0  0  0  0  0  0  0  0  0  0  0
   13.3368    0.7000    0.0000 C   0  0  0  0  0  0  0  0  0  0  0  0
   13.3368    2.1000    0.0000 C   0  0  0  0  0  0  0  0  0  0  0  0
   12.1244    2.8000    0.0000 C   0  0  0  0  0  0  0  0  0  0  0  0
  1  2  1  0  0  0  0
  2  3  1  0  0  0  0
  3  4  1  0  0  0  0
  4  5  1  0  0  0  0
  5  6  1  0  0  0  0
  6  1  1  0  0  0  0
  4  7  1  0  0  0  0
  7  8  1  0  0  0  0
  8  9  1  0  0  0  0
  8 10  2  0  0  0  0
  9 11  1  0  0  0  0
 11 12  1  0  0  0  0
 12 13  1  0  0  0  0
 13 14  1  0  0  0  0
 14 15  2  0  0  0  0
 15 16  1  0  0  0  0
 16 17  2  0  0  0  0
 17 18  1  0  0  0  0
 18 19  2  0  0  0  0
 19 14  1  0  0  0  0
M  END
> <Molecule Name>
431

> <CDD Number>
CDD-16164

> <Human_sEH_IC50_uM>
500.0

> <Mouse_sEH_IC50_uM>
500.0

$$$$

SketchEl molfile

 19 20  0  0  0  0  0  0  0  0999 V2000
    0.0000    4.2000    0.0000 C   0  0  0  0  0  0  0  0  0  0  0  0
    0.0000    2.8000    0.0000 C   0  0  0  0  0  0  0  0  0  0  0  0
    1.2124    2.1000    0.0000 C   0  0  0  0  0  0  0  0  0  0  0  0
    2.4249    2.8000    0.0000 C   0  0  0  0  0  0  0  0  0  0  0  0
    2.4249    4.2000    0.0000 C   0  0  0  0  0  0  0  0  0  0  0  0
    1.2124    4.9000    0.0000 C   0  0  0  0  0  0  0  0  0  0  0  0
    3.6373    2.1000    0.0000 C   0  0  0  0  0  0  0  0  0  0  0  0
    4.8497    2.8000    0.0000 C   0  0  0  0  0  0  0  0  0  0  0  0
    6.0622    2.1000    0.0000 N   0  0  0  0  0  0  0  0  0  0  0  0
    4.8497    4.2000    0.0000 O   0  0  0  0  0  0  0  0  0  0  0  0
    7.2746    2.8000    0.0000 C   0  0  0  0  0  0  0  0  0  0  0  0
    8.4870    2.1000    0.0000 C   0  0  0  0  0  0  0  0  0  0  0  0
    9.6995    2.8000    0.0000 C   0  0  0  0  0  0  0  0  0  0  0  0
   10.9119    2.1000    0.0000 C   0  0  0  0  0  0  0  0  0  0  0  0
   10.9119    0.7000    0.0000 C   0  0  0  0  0  0  0  0  0  0  0  0
   12.1244    0.0000    0.0000 C   0  0  0  0  0  0  0  0  0  0  0  0
   13.3368    0.7000    0.0000 C   0  0  0  0  0  0  0  0  0  0  0  0
   13.3368    2.1000    0.0000 C   0  0  0  0  0  0  0  0  0  0  0  0
   12.1244    2.8000    0.0000 C   0  0  0  0  0  0  0  0  0  0  0  0
  1  2  1  0  0  0  0
  2  3  1  0  0  0  0
  3  4  1  0  0  0  0
  4  5  1  0  0  0  0
  5  6  1  0  0  0  0
  6  1  1  0  0  0  0
  4  7  1  0  0  0  0
  7  8  1  0  0  0  0
  8  9  1  0  0  0  0
  8 10  2  0  0  0  0
  9 11  1  0  0  0  0
 11 12  1  0  0  0  0
 12 13  1  0  0  0  0
 13 14  1  0  0  0  0
 14 15  2  0  0  0  0
 15 16  1  0  0  0  0
 16 17  2  0  0  0  0
 17 18  1  0  0  0  0
 18 19  2  0  0  0  0
 19 14  1  0  0  0  0
M  END
> <Molecule Name>
431

> <CDD Number>
CDD-16164

> <Human_sEH_IC50_uM>
1.1

> <Mouse_sEH_IC50_uM>
0.73

$$$$

SketchEl molfile

 19 20  0  0  0  0  0  0  0  0999 V2000
    2.4249    2.8465    0.0000 C   0  0  0  0  0  0  0  0  0  0  0  0
    3.6373    2.1465    0.0000 N   0  0  0  0  0  0  0  0  0  0  0  0
    4.8497    2.8465    0.0000 C   0  0  0  0  0  0  0  0  0  0  0  0
    6.0622    2.1465    0.0000 N   0  0  0  0  0  0  0  0  0  0  0  0
    4.8497    4.2465    0.0000 O   0  0  0  0  0  0  0  0  0  0  0  0
    7.0521    2.7472    0.0000 C   0  0  0  0  0  0  0  0  0  0  0  0
    2.4249    4.2465    0.0000 C   0  0  0  0  0  0  0  0  0  0  0  0
    1.2124    4.9465    0.0000 C   0  0  0  0  0  0  0  0  0  0  0  0
    0.0000    4.2465    0.0000 C   0  0  0  0  0  0  0  0  0  0  0  0
    0.0000    2.8465    0.0000 C   0  0  0  0  0  0  0  0  0  0  0  0
    1.2124    2.1465    0.0000 C   0  0  0  0  0  0  0  0  0  0  0  0
    8.2795    2.0738    0.0000 C   0  0  0  0  0  0  0  0  0  0  0  0
    9.4764    2.8000    0.0000 C   0  0  0  0  0  0  0  0  0  0  0  0
   10.6889    2.1000    0.0000 C   0  0  0  0  0  0  0  0  0  0  0  0
   10.6889    0.7000    0.0000 C   0  0  0  0  0  0  0  0  0  0  0  0
   11.9013    0.0000    0.0000 C   0  0  0  0  0  0  0  0  0  0  0  0
   13.1137    0.7000    0.0000 C   0  0  0  0  0  0  0  0  0  0  0  0
   13.1137    2.1000    0.0000 C   0  0  0  0  0  0  0  0  0  0  0  0
   11.9013    2.8000    0.0000 C   0  0  0  0  0  0  0  0  0  0  0  0
  1  2  1  0  0  0  0
  2  3  1  0  0  0  0
  3  4  1  0  0  0  0
  3  5  2  0  0  0  0
  4  6  1  0  0  0  0
  1  7  2  0  0  0  0
  7  8  1  0  0  0  0
  8  9  2  0  0  0  0
  9 10  1  0  0  0  0
 10 11  2  0  0  0  0
 11  1  1  0  0  0  0
  6 12  1  0  0  0  0
 12 13  1  0  0  0  0
 13 14  1  0  0  0  0
 14 15  2  0  0  0  0
 15 16  1  0  0  0  0
 16 17  2  0  0  0  0
 17 18  1  0  0  0  0
 18 19  2  0  0  0  0
 19 14  1  0  0  0  0
M  END
> <Molecule Name>
430

> <CDD Number>
CDD-16008

> <Human_sEH_IC50_uM>
0.55

> <Mouse_sEH_IC50_uM>
0.21

$$$$

SketchEl molfile

 16 15  0  0  0  0  0  0  0  0999 V2000
    7.2746    0.7993    0.0000 C   0  0  0  0  0  0  0  0  0  0  0  0
    8.4870    0.0993    0.0000 C   0  0  0  0  0  0  0  0  0  0  0  0
    9.6995    0.7993    0.0000 C   0  0  0  0  0  0  0  0  0  0  0  0
   10.9119    0.0993    0.0000 N   0  0  0  0  0  0  0  0  0  0  0  0
   12.1244    0.7993    0.0000 C   0  0  0  0  0  0  0  0  0  0  0  0
   13.3368    0.0993    0.0000 N   0  0  0  0  0  0  0  0  0  0  0  0
   12.1244    2.1993    0.0000 O   0  0  0  0  0  0  0  0  0  0  0  0
    6.0622    0.0993    0.0000 C   0  0  0  0  0  0  0  0  0  0  0  0
    4.8497    0.7993    0.0000 C   0  0  0  0  0  0  0  0  0  0  0  0
    3.6373    0.0993    0.0000 C   0  0  0  0  0  0  0  0  0  0  0  0
    2.4249    0.7993    0.0000 C   0  0  0  0  0  0  0  0  0  0  0  0
    1.2124    0.0993    0.0000 C   0  0  0  0  0  0  0  0  0  0  0  0
   14.3267    0.7000    0.0000 C   0  0  0  0  0  0  0  0  0  0  0  0
    0.0000    0.7993    0.0000 C   0  0  0  0  0  0  0  0  0  0  0  0
   15.5392    0.0000    0.0000 C   0  0  0  0  0  0  0  0  0  0  0  0
   16.7516    0.7000    0.0000 C   0  0  0  0  0  0  0  0  0  0  0  0
  1  2  1  0  0  0  0
  2  3  1  0  0  0  0
  3  4  1  0  0  0  0
  4  5  1  0  0  0  0
  5  6  1  0  0  0  0
  5  7  2  0  0  0  0
  1  8  1  0  0  0  0
  8  9  1  0  0  0  0
  9 10  1  0  0  0  0
 10 11  1  0  0  0  0
 11 12  1  0  0  0  0
  6 13  1  0  0  0  0
 12 14  1  0  0  0  0
 13 15  1  0  0  0  0
 15 16  1  0  0  0  0
M  END
> <Molecule Name>
429

> <CDD Number>
CDD-15829

> <Human_sEH_IC50_uM>
1.7

> <Mouse_sEH_IC50_uM>
0.38

$$$$

SketchEl molfile

 20 21  0  0  0  0  0  0  0  0999 V2000
    0.0000    2.1993    0.0000 C   0  0  0  0  0  0  0  0  0  0  0  0
    0.0000    0.7993    0.0000 C   0  0  0  0  0  0  0  0  0  0  0  0
    1.2124    0.0993    0.0000 C   0  0  0  0  0  0  0  0  0  0  0  0
    2.4249    0.7993    0.0000 C   0  0  0  0  0  0  0  0  0  0  0  0
    2.4249    2.1993    0.0000 C   0  0  0  0  0  0  0  0  0  0  0  0
    1.2124    2.8993    0.0000 C   0  0  0  0  0  0  0  0  0  0  0  0
    3.6373    0.0993    0.0000 N   0  0  0  0  0  0  0  0  0  0  0  0
    4.8497    0.7993    0.0000 C   0  0  0  0  0  0  0  0  0  0  0  0
    6.0622    0.0993    0.0000 N   0  0  0  0  0  0  0  0  0  0  0  0
    4.8497    2.1993    0.0000 O   0  0  0  0  0  0  0  0  0  0  0  0
    7.0521    0.7000    0.0000 C   0  0  0  0  0  0  0  0  0  0  0  0
    8.2646    0.0000    0.0000 C   0  0  0  0  0  0  0  0  0  0  0  0
    9.4770    0.7000    0.0000 C   0  0  0  0  0  0  0  0  0  0  0  0
    9.4770    2.1000    0.0000 C   0  0  0  0  0  0  0  0  0  0  0  0
    8.2646    2.8000    0.0000 C   0  0  0  0  0  0  0  0  0  0  0  0
    7.0521    2.1000    0.0000 C   0  0  0  0  0  0  0  0  0  0  0  0
   10.6894    2.8000    0.0000 C   0  0  0  0  0  0  0  0  0  0  0  0
   10.6894    4.2000    0.0000 C   0  0  0  0  0  0  0  0  0  0  0  0
   11.9019    3.5000    0.0000 C   0  0  0  0  0  0  0  0  0  0  0  0
   12.0417    2.4377    0.0000 C   0  0  0  0  0  0  0  0  0  0  0  0
  1  2  1  0  0  0  0
  2  3  1  0  0  0  0
  3  4  1  0  0  0  0
  4  5  1  0  0  0  0
  5  6  1  0  0  0  0
  6  1  1  0  0  0  0
  4  7  1  0  0  0  0
  7  8  1  0  0  0  0
  8  9  1  0  0  0  0
  8 10  2  0  0  0  0
  9 11  1  0  0  0  0
 11 12  1  0  0  0  0
 12 13  1  0  0  0  0
 13 14  1  0  0  0  0
 14 15  1  0  0  0  0
 15 16  1  0  0  0  0
 16 11  1  0  0  0  0
 14 17  1  0  0  0  0
 17 18  1  0  0  0  0
 17 19  1  0  0  0  0
 17 20  1  0  0  0  0
M  END
> <Molecule Name>
428

> <CDD Number>
CDD-15950

> <Human_sEH_IC50_uM>
0.1

> <Mouse_sEH_IC50_uM>
0.05

$$$$

SketchEl molfile

 20 23  0  0  0  0  0  0  0  0999 V2000
    8.6472    1.9124    0.0000 C   0  0  0  0  0  0  0  0  0  0  0  0
    7.9472    0.7000    0.0000 C   0  0  0  0  0  0  0  0  0  0  0  0
    9.2933    1.0847    0.0000 C   0  0  0  0  0  0  0  0  0  0  0  0
   10.6476    0.7000    0.0000 C   0  0  0  0  0  0  0  0  0  0  0  0
   11.3478    1.9124    0.0000 C   0  0  0  0  0  0  0  0  0  0  0  0
   10.0015    1.5278    0.0000 C   0  0  0  0  0  0  0  0  0  0  0  0
   11.3478    3.3124    0.0000 C   0  0  0  0  0  0  0  0  0  0  0  0
    9.2933    2.4847    0.0000 C   0  0  0  0  0  0  0  0  0  0  0  0
    8.6472    3.3124    0.0000 C   0  0  0  0  0  0  0  0  0  0  0  0
    9.9933    3.6972    0.0000 C   0  0  0  0  0  0  0  0  0  0  0  0
    6.7348    0.0000    0.0000 N   0  0  0  0  0  0  0  0  0  0  0  0
    5.1860    0.7000    0.0000 C   0  0  0  0  0  0  0  0  0  0  0  0
    3.9736    0.0000    0.0000 N   0  0  0  0  0  0  0  0  0  0  0  0
    5.1860    2.1000    0.0000 O   0  0  0  0  0  0  0  0  0  0  0  0
    2.4249    0.7000    0.0000 C   0  0  0  0  0  0  0  0  0  0  0  0
    2.4249    2.1000    0.0000 C   0  0  0  0  0  0  0  0  0  0  0  0
    1.2124    2.8000    0.0000 C   0  0  0  0  0  0  0  0  0  0  0  0
    0.0000    2.1000    0.0000 C   0  0  0  0  0  0  0  0  0  0  0  0
    0.0000    0.7000    0.0000 C   0  0  0  0  0  0  0  0  0  0  0  0
    1.2124    0.0000    0.0000 C   0  0  0  0  0  0  0  0  0  0  0  0
  1  2  1  0  0  0  0
  2  3  1  0  0  0  0
  3  4  1  0  0  0  0
  4  5  1  0  0  0  0
  5  6  1  0  0  0  0
  6  1  1  0  0  0  0
  5  7  1  0  0  0  0
  3  8  1  0  0  0  0
  1  9  1  0  0  0  0
  8 10  1  0  0  0  0
  9 10  1  0  0  0  0
 10  7  1  0  0  0  0
  2 11  1  0  0  0  0
 11 12  1  0  0  0  0
 12 13  1  0  0  0  0
 12 14  2  0  0  0  0
 13 15  1  0  0  0  0
 15 16  1  0  0  0  0
 16 17  1  0  0  0  0
 17 18  1  0  0  0  0
 18 19  1  0  0  0  0
 19 20  1  0  0  0  0
 20 15  1  0  0  0  0
M  END
> <Molecule Name>
427

> <CDD Number>
CDD-15955

> <Human_sEH_IC50_uM>
0.1

> <Mouse_sEH_IC50_uM>
0.05

$$$$

SketchEl molfile

 20 21  0  0  0  0  0  0  0  0999 V2000
    7.2746    0.7000    0.0000 C   0  0  0  0  0  0  0  0  0  0  0  0
    6.0622    0.0000    0.0000 N   0  0  0  0  0  0  0  0  0  0  0  0
    4.8497    0.7000    0.0000 C   0  0  0  0  0  0  0  0  0  0  0  0
    3.6373    0.0000    0.0000 N   0  0  0  0  0  0  0  0  0  0  0  0
    4.8497    2.1000    0.0000 O   0  0  0  0  0  0  0  0  0  0  0  0
    2.4249    0.7000    0.0000 C   0  0  0  0  0  0  0  0  0  0  0  0
    2.4249    2.1000    0.0000 C   0  0  0  0  0  0  0  0  0  0  0  0
    1.2124    2.8000    0.0000 C   0  0  0  0  0  0  0  0  0  0  0  0
    0.0000    2.1000    0.0000 C   0  0  0  0  0  0  0  0  0  0  0  0
    0.0000    0.7000    0.0000 C   0  0  0  0  0  0  0  0  0  0  0  0
    1.2124    0.0000    0.0000 C   0  0  0  0  0  0  0  0  0  0  0  0
    8.4870    0.0000    0.0000 C   0  0  0  0  0  0  0  0  0  0  0  0
    9.6995    0.7000    0.0000 C   0  0  0  0  0  0  0  0  0  0  0  0
    9.6995    2.1000    0.0000 C   0  0  0  0  0  0  0  0  0  0  0  0
    8.4870    2.8000    0.0000 C   0  0  0  0  0  0  0  0  0  0  0  0
    7.2746    2.1000    0.0000 C   0  0  0  0  0  0  0  0  0  0  0  0
   10.9119    2.8000    0.0000 S   0  0  0  0  0  0  0  0  0  0  0  0
   10.5496    4.1523    0.0000 O   0  0  0  0  0  0  0  0  0  0  0  0
   11.2743    1.4477    0.0000 O   0  0  0  0  0  0  0  0  0  0  0  0
   12.3119    2.8000    0.0000 N   0  0  0  0  0  0  0  0  0  0  0  0
  1  2  1  0  0  0  0
  2  3  1  0  0  0  0
  3  4  1  0  0  0  0
  3  5  2  0  0  0  0
  4  6  1  0  0  0  0
  6  7  1  0  0  0  0
  7  8  1  0  0  0  0
  8  9  1  0  0  0  0
  9 10  1  0  0  0  0
 10 11  1  0  0  0  0
 11  6  1  0  0  0  0
  1 12  2  0  0  0  0
 12 13  1  0  0  0  0
 13 14  2  0  0  0  0
 14 15  1  0  0  0  0
 15 16  2  0  0  0  0
 16  1  1  0  0  0  0
 14 17  1  0  0  0  0
 17 18  2  0  0  0  0
 17 19  2  0  0  0  0
 17 20  1  0  0  0  0
M  END
> <Molecule Name>
426

> <CDD Number>
CDD-15991

> <Human_sEH_IC50_uM>
2.1

> <Mouse_sEH_IC50_uM>
1.1

$$$$

SketchEl molfile

 24 24  0  0  0  0  0  0  0  0999 V2000
    0.0000    2.2987    0.0000 C   0  0  0  0  0  0  0  0  0  0  0  0
    1.2124    1.5987    0.0000 C   0  0  0  0  0  0  0  0  0  0  0  0
    2.4249    2.2987    0.0000 C   0  0  0  0  0  0  0  0  0  0  0  0
    2.4249    3.6987    0.0000 C   0  0  0  0  0  0  0  0  0  0  0  0
    1.2124    4.3987    0.0000 C   0  0  0  0  0  0  0  0  0  0  0  0
    0.0000    3.6987    0.0000 C   0  0  0  0  0  0  0  0  0  0  0  0
    3.6373    1.5987    0.0000 N   0  0  0  0  0  0  0  0  0  0  0  0
    4.6273    2.1993    0.0000 C   0  0  0  0  0  0  0  0  0  0  0  0
    5.8397    1.4993    0.0000 N   0  0  0  0  0  0  0  0  0  0  0  0
    4.6273    3.5993    0.0000 O   0  0  0  0  0  0  0  0  0  0  0  0
    6.8296    2.1000    0.0000 C   0  0  0  0  0  0  0  0  0  0  0  0
    8.0421    1.4000    0.0000 C   0  0  0  0  0  0  0  0  0  0  0  0
    9.2545    2.1000    0.0000 C   0  0  0  0  0  0  0  0  0  0  0  0
   10.4669    1.4000    0.0000 C   0  0  0  0  0  0  0  0  0  0  0  0
   11.6794    2.1000    0.0000 C   0  0  0  0  0  0  0  0  0  0  0  0
   12.8918    1.4000    0.0000 C   0  0  0  0  0  0  0  0  0  0  0  0
   14.1043    2.1000    0.0000 C   0  0  0  0  0  0  0  0  0  0  0  0
   15.3167    1.4000    0.0000 C   0  0  0  0  0  0  0  0  0  0  0  0
   16.5291    2.1000    0.0000 C   0  0  0  0  0  0  0  0  0  0  0  0
   17.7416    1.4000    0.0000 C   0  0  0  0  0  0  0  0  0  0  0  0
   18.9540    2.1000    0.0000 C   0  0  0  0  0  0  0  0  0  0  0  0
   20.1664    1.4000    0.0000 C   0  0  0  0  0  0  0  0  0  0  0  0
   21.3789    2.1000    0.0000 O   0  0  0  0  0  0  0  0  0  0  0  0
   20.1664    0.0000    0.0000 O   0  0  0  0  0  0  0  0  0  0  0  0
  1  2  1  0  0  0  0
  2  3  1  0  0  0  0
  3  4  1  0  0  0  0
  4  5  1  0  0  0  0
  5  6  1  0  0  0  0
  6  1  1  0  0  0  0
  3  7  1  0  0  0  0
  7  8  1  0  0  0  0
  8  9  1  0  0  0  0
  8 10  2  0  0  0  0
  9 11  1  0  0  0  0
 11 12  1  0  0  0  0
 12 13  1  0  0  0  0
 13 14  1  0  0  0  0
 14 15  1  0  0  0  0
 15 16  1  0  0  0  0
 16 17  1  0  0  0  0
 17 18  1  0  0  0  0
 18 19  1  0  0  0  0
 19 20  1  0  0  0  0
 20 21  1  0  0  0  0
 21 22  1  0  0  0  0
 22 23  1  0  0  0  0
 22 24  2  0  0  0  0
M  END
> <Molecule Name>
425

> <CDD Number>
CDD-15931

> <Human_sEH_IC50_uM>
0.1

> <Mouse_sEH_IC50_uM>
0.05

$$$$

SketchEl molfile

 10  9  0  0  0  0  0  0  0  0999 V2000
    2.4249    2.1000    0.0000 N   0  0  0  0  0  0  0  0  0  0  0  0
    3.4148    2.7007    0.0000 C   0  0  0  0  0  0  0  0  0  0  0  0
    4.6273    2.0007    0.0000 N   0  0  0  0  0  0  0  0  0  0  0  0
    3.4148    4.1007    0.0000 O   0  0  0  0  0  0  0  0  0  0  0  0
    2.4249    0.7000    0.0000 C   0  0  0  0  0  0  0  0  0  0  0  0
    1.2124    0.0000    0.0000 C   0  0  0  0  0  0  0  0  0  0  0  0
    0.0000    0.7000    0.0000 C   0  0  0  0  0  0  0  0  0  0  0  0
    1.2124    2.8000    0.0000 C   0  0  0  0  0  0  0  0  0  0  0  0
    0.0000    2.1000    0.0000 C   0  0  0  0  0  0  0  0  0  0  0  0
    5.6172    2.6013    0.0000 C   0  0  0  0  0  0  0  0  0  0  0  0
  1  2  1  0  0  0  0
  2  3  1  0  0  0  0
  2  4  2  0  0  0  0
  1  5  1  0  0  0  0
  5  6  1  0  0  0  0
  6  7  1  0  0  0  0
  1  8  1  0  0  0  0
  8  9  1  0  0  0  0
  3 10  1  0  0  0  0
M  END
> <Molecule Name>
422

> <CDD Number>
CDD-15794

> <Human_sEH_IC50_uM>
500.0

> <Mouse_sEH_IC50_uM>
500.0

$$$$

SketchEl molfile

 20 21  0  0  0  0  0  0  0  0999 V2000
    6.3985    1.6741    0.0000 N   0  0  0  0  0  0  0  0  0  0  0  0
    7.6109    2.3741    0.0000 C   0  0  0  0  0  0  0  0  0  0  0  0
    8.8233    1.6741    0.0000 N   0  0  0  0  0  0  0  0  0  0  0  0
    7.6109    3.7741    0.0000 O   0  0  0  0  0  0  0  0  0  0  0  0
    9.8133    2.2748    0.0000 C   0  0  0  0  0  0  0  0  0  0  0  0
    4.8497    2.3741    0.0000 C   0  0  0  0  0  0  0  0  0  0  0  0
    4.8497    3.7741    0.0000 C   0  0  0  0  0  0  0  0  0  0  0  0
    3.6373    4.4741    0.0000 C   0  0  0  0  0  0  0  0  0  0  0  0
    2.4249    3.7741    0.0000 C   0  0  0  0  0  0  0  0  0  0  0  0
    2.4249    2.3741    0.0000 C   0  0  0  0  0  0  0  0  0  0  0  0
    3.6373    1.6741    0.0000 C   0  0  0  0  0  0  0  0  0  0  0  0
    1.2124    4.4741    0.0000 C   0  0  0  0  0  0  0  0  0  0  0  0
    0.0000    3.7741    0.0000 C   0  0  0  0  0  0  0  0  0  0  0  0
    0.0000    2.3741    0.0000 C   0  0  0  0  0  0  0  0  0  0  0  0
    1.2124    1.6741    0.0000 C   0  0  0  0  0  0  0  0  0  0  0  0
   11.0257    1.5748    0.0000 C   0  0  0  0  0  0  0  0  0  0  0  0
   12.2382    2.2748    0.0000 O   0  0  0  0  0  0  0  0  0  0  0  0
   11.7257    0.3623    0.0000 O   0  0  0  0  0  0  0  0  0  0  0  0
   13.0780    0.0000    0.0000 C   0  0  0  0  0  0  0  0  0  0  0  0
   13.5905    1.9124    0.0000 C   0  0  0  0  0  0  0  0  0  0  0  0
  1  2  1  0  0  0  0
  2  3  1  0  0  0  0
  2  4  2  0  0  0  0
  3  5  1  0  0  0  0
  1  6  1  0  0  0  0
  6  7  2  0  0  0  0
  7  8  1  0  0  0  0
  8  9  2  0  0  0  0
  9 10  1  0  0  0  0
 10 11  2  0  0  0  0
 11  6  1  0  0  0  0
  9 12  1  0  0  0  0
 12 13  2  0  0  0  0
 13 14  1  0  0  0  0
 14 15  2  0  0  0  0
 15 10  1  0  0  0  0
  5 16  1  0  0  0  0
 16 17  1  0  0  0  0
 16 18  1  0  0  0  0
 18 19  1  0  0  0  0
 17 20  1  0  0  0  0
M  END
> <Molecule Name>
418

> <CDD Number>
CDD-16057

> <Human_sEH_IC50_uM>
270.0

> <Mouse_sEH_IC50_uM>
190.0

$$$$

SketchEl molfile

 26 29  0  0  0  0  0  0  0  0999 V2000
    0.9899    1.9177    0.0000 C   0  0  0  0  0  0  0  0  0  0  0  0
    0.0000    0.9278    0.0000 C   0  0  0  0  0  0  0  0  0  0  0  0
    1.3998    0.9278    0.0000 C   0  0  0  0  0  0  0  0  0  0  0  0
    2.6161    0.2344    0.0000 C   0  0  0  0  0  0  0  0  0  0  0  0
    3.6062    1.2243    0.0000 C   0  0  0  0  0  0  0  0  0  0  0  0
    2.2063    1.2243    0.0000 C   0  0  0  0  0  0  0  0  0  0  0  0
    3.6062    2.6243    0.0000 C   0  0  0  0  0  0  0  0  0  0  0  0
    1.3998    2.3278    0.0000 C   0  0  0  0  0  0  0  0  0  0  0  0
    0.9899    3.3177    0.0000 C   0  0  0  0  0  0  0  0  0  0  0  0
    2.3898    3.3177    0.0000 C   0  0  0  0  0  0  0  0  0  0  0  0
    4.8186    0.5243    0.0000 N   0  0  0  0  0  0  0  0  0  0  0  0
    6.0311    1.2243    0.0000 C   0  0  0  0  0  0  0  0  0  0  0  0
    7.2435    0.5243    0.0000 N   0  0  0  0  0  0  0  0  0  0  0  0
    6.0311    2.6243    0.0000 O   0  0  0  0  0  0  0  0  0  0  0  0
   10.5862    0.4103    0.0000 C   0  0  0  0  0  0  0  0  0  0  0  0
   12.5947    2.3880    0.0000 C   0  0  0  0  0  0  0  0  0  0  0  0
   10.6170    4.3964    0.0000 C   0  0  0  0  0  0  0  0  0  0  0  0
    8.6086    2.4187    0.0000 C   0  0  0  0  0  0  0  0  0  0  0  0
   12.9618    3.7120    0.0000 C   0  0  0  0  0  0  0  0  0  0  0  0
   11.9482    4.7273    0.0000 C   0  0  0  0  0  0  0  0  0  0  0  0
    9.3074    4.7922    0.0000 C   0  0  0  0  0  0  0  0  0  0  0  0
    8.2890    3.7818    0.0000 C   0  0  0  0  0  0  0  0  0  0  0  0
    8.2334    1.1249    0.0000 C   0  0  0  0  0  0  0  0  0  0  0  0
    9.2478    0.1106    0.0000 C   0  0  0  0  0  0  0  0  0  0  0  0
   11.8834    0.0000    0.0000 C   0  0  0  0  0  0  0  0  0  0  0  0
   12.9005    1.0117    0.0000 C   0  0  0  0  0  0  0  0  0  0  0  0
  1  2  1  0  0  0  0
  2  3  1  0  0  0  0
  3  4  1  0  0  0  0
  4  5  1  0  0  0  0
  5  6  1  0  0  0  0
  6  1  1  0  0  0  0
  5  7  1  0  0  0  0
  3  8  1  0  0  0  0
  1  9  1  0  0  0  0
  8 10  1  0  0  0  0
  7 10  1  0  0  0  0
  9 10  1  0  0  0  0
  5 11  1  0  0  0  0
 11 12  1  0  0  0  0
 12 13  1  0  0  0  0
 12 14  2  0  0  0  0
 13 23  1  0  0  0  0
 19 20  1  0  0  0  0
 17 20  1  0  0  0  0
 16 19  1  0  0  0  0
 21 22  1  0  0  0  0
 17 21  1  0  0  0  0
 18 22  1  0  0  0  0
 23 24  1  0  0  0  0
 15 24  1  0  0  0  0
 18 23  1  0  0  0  0
 25 26  1  0  0  0  0
 16 26  1  0  0  0  0
 15 25  1  0  0  0  0
M  END
> <Molecule Name>
413

> <CDD Number>
CDD-15995

> <Human_sEH_IC50_uM>
0.1

> <Mouse_sEH_IC50_uM>
0.05

$$$$

SketchEl molfile

 25 30  0  0  0  0  0  0  0  0999 V2000
    0.9900    4.6552    0.0000 C   0  0  0  0  0  0  0  0  0  0  0  0
    0.0000    3.6653    0.0000 C   0  0  0  0  0  0  0  0  0  0  0  0
    1.3998    3.6653    0.0000 C   0  0  0  0  0  0  0  0  0  0  0  0
    2.6161    2.9719    0.0000 C   0  0  0  0  0  0  0  0  0  0  0  0
    3.6062    3.9618    0.0000 C   0  0  0  0  0  0  0  0  0  0  0  0
    2.2063    3.9618    0.0000 C   0  0  0  0  0  0  0  0  0  0  0  0
    3.6062    5.3618    0.0000 C   0  0  0  0  0  0  0  0  0  0  0  0
    1.3998    5.0653    0.0000 C   0  0  0  0  0  0  0  0  0  0  0  0
    0.9900    6.0552    0.0000 C   0  0  0  0  0  0  0  0  0  0  0  0
    2.3898    6.0552    0.0000 C   0  0  0  0  0  0  0  0  0  0  0  0
    4.8186    3.2618    0.0000 N   0  0  0  0  0  0  0  0  0  0  0  0
    6.0311    3.9618    0.0000 C   0  0  0  0  0  0  0  0  0  0  0  0
    7.2435    3.2618    0.0000 N   0  0  0  0  0  0  0  0  0  0  0  0
    6.0311    5.3618    0.0000 O   0  0  0  0  0  0  0  0  0  0  0  0
    9.6684    3.2618    0.0000 C   0  0  0  0  0  0  0  0  0  0  0  0
    9.3060    1.9095    0.0000 C   0  0  0  0  0  0  0  0  0  0  0  0
   10.5146    1.2027    0.0000 C   0  0  0  0  0  0  0  0  0  0  0  0
   11.2155    0.0000    0.0000 C   0  0  0  0  0  0  0  0  0  0  0  0
   11.5779    1.3522    0.0000 C   0  0  0  0  0  0  0  0  0  0  0  0
   10.3694    2.0591    0.0000 C   0  0  0  0  0  0  0  0  0  0  0  0
   10.6583    4.2517    0.0000 C   0  0  0  0  0  0  0  0  0  0  0  0
   12.5679    2.3422    0.0000 C   0  0  0  0  0  0  0  0  0  0  0  0
   11.5045    2.1927    0.0000 C   0  0  0  0  0  0  0  0  0  0  0  0
   11.8669    3.5450    0.0000 C   0  0  0  0  0  0  0  0  0  0  0  0
    8.4559    3.9618    0.0000 C   0  0  0  0  0  0  0  0  0  0  0  0
  1  2  1  0  0  0  0
  2  3  1  0  0  0  0
  3  4  1  0  0  0  0
  4  5  1  0  0  0  0
  5  6  1  0  0  0  0
  6  1  1  0  0  0  0
  5  7  1  0  0  0  0
  3  8  1  0  0  0  0
  1  9  1  0  0  0  0
  8 10  1  0  0  0  0
  7 10  1  0  0  0  0
  9 10  1  0  0  0  0
  5 11  1  0  0  0  0
 11 12  1  0  0  0  0
 12 13  1  0  0  0  0
 12 14  2  0  0  0  0
 15 16  1  0  0  0  0
 16 17  1  0  0  0  0
 17 18  1  0  0  0  0
 18 19  1  0  0  0  0
 19 20  1  0  0  0  0
 20 15  1  0  0  0  0
 15 21  1  0  0  0  0
 19 22  1  0  0  0  0
 17 23  1  0  0  0  0
 23 24  1  0  0  0  0
 22 24  1  0  0  0  0
 21 24  1  0  0  0  0
 13 25  1  0  0  0  0
 25 15  1  0  0  0  0
M  END
> <Molecule Name>
412

> <CDD Number>
CDD-15994

> <Human_sEH_IC50_uM>
0.1

> <Mouse_sEH_IC50_uM>
0.05

$$$$

SketchEl molfile

 24 29  0  0  0  0  0  0  0  0999 V2000
    0.9900    2.0052    0.0000 C   0  0  0  0  0  0  0  0  0  0  0  0
    0.0000    1.0153    0.0000 C   0  0  0  0  0  0  0  0  0  0  0  0
    1.3998    1.0153    0.0000 C   0  0  0  0  0  0  0  0  0  0  0  0
    2.6161    0.3219    0.0000 C   0  0  0  0  0  0  0  0  0  0  0  0
    3.6062    1.3118    0.0000 C   0  0  0  0  0  0  0  0  0  0  0  0
    2.2063    1.3118    0.0000 C   0  0  0  0  0  0  0  0  0  0  0  0
    3.6062    2.7118    0.0000 C   0  0  0  0  0  0  0  0  0  0  0  0
    1.3998    2.4153    0.0000 C   0  0  0  0  0  0  0  0  0  0  0  0
    0.9900    3.4052    0.0000 C   0  0  0  0  0  0  0  0  0  0  0  0
    2.3898    3.4052    0.0000 C   0  0  0  0  0  0  0  0  0  0  0  0
    4.8186    0.6118    0.0000 N   0  0  0  0  0  0  0  0  0  0  0  0
    6.0311    1.3118    0.0000 C   0  0  0  0  0  0  0  0  0  0  0  0
    7.2435    0.6118    0.0000 N   0  0  0  0  0  0  0  0  0  0  0  0
    6.0311    2.7118    0.0000 O   0  0  0  0  0  0  0  0  0  0  0  0
    8.2334    1.2124    0.0000 C   0  0  0  0  0  0  0  0  0  0  0  0
    8.9334    0.0000    0.0000 C   0  0  0  0  0  0  0  0  0  0  0  0
   10.2878    0.3548    0.0000 C   0  0  0  0  0  0  0  0  0  0  0  0
   11.6339    0.0000    0.0000 C   0  0  0  0  0  0  0  0  0  0  0  0
   10.9340    1.2124    0.0000 C   0  0  0  0  0  0  0  0  0  0  0  0
    9.5795    0.8577    0.0000 C   0  0  0  0  0  0  0  0  0  0  0  0
    8.2334    2.6124    0.0000 C   0  0  0  0  0  0  0  0  0  0  0  0
   10.9340    2.6124    0.0000 C   0  0  0  0  0  0  0  0  0  0  0  0
   10.2878    1.7548    0.0000 C   0  0  0  0  0  0  0  0  0  0  0  0
    9.5878    2.9673    0.0000 C   0  0  0  0  0  0  0  0  0  0  0  0
  1  2  1  0  0  0  0
  2  3  1  0  0  0  0
  3  4  1  0  0  0  0
  4  5  1  0  0  0  0
  5  6  1  0  0  0  0
  6  1  1  0  0  0  0
  5  7  1  0  0  0  0
  3  8  1  0  0  0  0
  1  9  1  0  0  0  0
  8 10  1  0  0  0  0
  7 10  1  0  0  0  0
  9 10  1  0  0  0  0
  5 11  1  0  0  0  0
 11 12  1  0  0  0  0
 12 13  1  0  0  0  0
 12 14  2  0  0  0  0
 13 15  1  0  0  0  0
 15 16  1  0  0  0  0
 16 17  1  0  0  0  0
 17 18  1  0  0  0  0
 18 19  1  0  0  0  0
 19 20  1  0  0  0  0
 20 15  1  0  0  0  0
 15 21  1  0  0  0  0
 19 22  1  0  0  0  0
 17 23  1  0  0  0  0
 23 24  1  0  0  0  0
 22 24  1  0  0  0  0
 21 24  1  0  0  0  0
M  END
> <Molecule Name>
411

> <CDD Number>
CDD-15993

> <Human_sEH_IC50_uM>
0.1

> <Mouse_sEH_IC50_uM>
0.05

$$$$

SketchEl molfile

 17 18  0  0  0  0  0  0  0  0999 V2000
    7.2746    0.7000    0.0000 C   0  0  0  0  0  0  0  0  0  0  0  0
    6.0622    0.0000    0.0000 N   0  0  0  0  0  0  0  0  0  0  0  0
    4.8497    0.7000    0.0000 C   0  0  0  0  0  0  0  0  0  0  0  0
    3.6373    0.0000    0.0000 N   0  0  0  0  0  0  0  0  0  0  0  0
    4.8497    2.1000    0.0000 O   0  0  0  0  0  0  0  0  0  0  0  0
    2.4249    0.7000    0.0000 C   0  0  0  0  0  0  0  0  0  0  0  0
    2.4249    2.1000    0.0000 C   0  0  0  0  0  0  0  0  0  0  0  0
    1.2124    2.8000    0.0000 C   0  0  0  0  0  0  0  0  0  0  0  0
    0.0000    2.1000    0.0000 C   0  0  0  0  0  0  0  0  0  0  0  0
    0.0000    0.7000    0.0000 C   0  0  0  0  0  0  0  0  0  0  0  0
    1.2124    0.0000    0.0000 C   0  0  0  0  0  0  0  0  0  0  0  0
    8.4870    0.0000    0.0000 C   0  0  0  0  0  0  0  0  0  0  0  0
    9.6995    0.7000    0.0000 C   0  0  0  0  0  0  0  0  0  0  0  0
    9.6995    2.1000    0.0000 C   0  0  0  0  0  0  0  0  0  0  0  0
    8.4870    2.8000    0.0000 C   0  0  0  0  0  0  0  0  0  0  0  0
    7.2746    2.1000    0.0000 C   0  0  0  0  0  0  0  0  0  0  0  0
   10.9119    2.8000    0.0000 N   0  0  0  0  0  0  0  0  0  0  0  0
  1  2  1  0  0  0  0
  2  3  1  0  0  0  0
  3  4  1  0  0  0  0
  3  5  2  0  0  0  0
  4  6  1  0  0  0  0
  6  7  1  0  0  0  0
  7  8  1  0  0  0  0
  8  9  1  0  0  0  0
  9 10  1  0  0  0  0
 10 11  1  0  0  0  0
 11  6  1  0  0  0  0
  1 12  2  0  0  0  0
 12 13  1  0  0  0  0
 13 14  2  0  0  0  0
 14 15  1  0  0  0  0
 15 16  2  0  0  0  0
 16  1  1  0  0  0  0
 14 17  1  0  0  0  0
M  END
> <Molecule Name>
385

> <CDD Number>
CDD-15887

> <Human_sEH_IC50_uM>
2.2

> <Mouse_sEH_IC50_uM>
0.17

$$$$

SketchEl molfile

 22 23  0  0  0  0  0  0  0  0999 V2000
    7.2746    0.7000    0.0000 C   0  0  0  0  0  0  0  0  0  0  0  0
    6.0622    0.0000    0.0000 N   0  0  0  0  0  0  0  0  0  0  0  0
    4.8497    0.7000    0.0000 C   0  0  0  0  0  0  0  0  0  0  0  0
    3.6373    0.0000    0.0000 N   0  0  0  0  0  0  0  0  0  0  0  0
    4.8497    2.1000    0.0000 O   0  0  0  0  0  0  0  0  0  0  0  0
    2.4249    0.7000    0.0000 C   0  0  0  0  0  0  0  0  0  0  0  0
    2.4249    2.1000    0.0000 C   0  0  0  0  0  0  0  0  0  0  0  0
    1.2124    2.8000    0.0000 C   0  0  0  0  0  0  0  0  0  0  0  0
    0.0000    2.1000    0.0000 C   0  0  0  0  0  0  0  0  0  0  0  0
    0.0000    0.7000    0.0000 C   0  0  0  0  0  0  0  0  0  0  0  0
    1.2124    0.0000    0.0000 C   0  0  0  0  0  0  0  0  0  0  0  0
    8.4870    0.0000    0.0000 C   0  0  0  0  0  0  0  0  0  0  0  0
    9.6995    0.7000    0.0000 C   0  0  0  0  0  0  0  0  0  0  0  0
   12.1244    0.7000    0.0000 C   0  0  0  0  0  0  0  0  0  0  0  0
   12.1244    2.1000    0.0000 C   0  0  0  0  0  0  0  0  0  0  0  0
   13.3368    2.8000    0.0000 O   0  0  0  0  0  0  0  0  0  0  0  0
   13.3368    0.0000    0.0000 O   0  0  0  0  0  0  0  0  0  0  0  0
   14.5492    0.7000    0.0000 C   0  0  0  0  0  0  0  0  0  0  0  0
   14.5492    2.1000    0.0000 C   0  0  0  0  0  0  0  0  0  0  0  0
   10.9119    0.0000    0.0000 C   0  0  0  0  0  0  0  0  0  0  0  0
   10.9119    2.8000    0.0000 C   0  0  0  0  0  0  0  0  0  0  0  0
    9.6995    2.1000    0.0000 C   0  0  0  0  0  0  0  0  0  0  0  0
  1  2  1  0  0  0  0
  2  3  1  0  0  0  0
  3  4  1  0  0  0  0
  3  5  2  0  0  0  0
  4  6  1  0  0  0  0
  6  7  1  0  0  0  0
  7  8  1  0  0  0  0
  8  9  1  0  0  0  0
  9 10  1  0  0  0  0
 10 11  1  0  0  0  0
 11  6  1  0  0  0  0
  1 12  1  0  0  0  0
 12 13  1  0  0  0  0
 15 16  1  0  0  0  0
 14 17  1  0  0  0  0
 17 18  1  0  0  0  0
 16 19  1  0  0  0  0
 13 20  2  0  0  0  0
 20 14  1  0  0  0  0
 14 15  2  0  0  0  0
 15 21  1  0  0  0  0
 21 22  2  0  0  0  0
 22 13  1  0  0  0  0
M  END
> <Molecule Name>
384

> <CDD Number>
CDD-15985

> <Human_sEH_IC50_uM>
1.0

> <Mouse_sEH_IC50_uM>
0.05

$$$$

SketchEl molfile

 17 18  0  0  0  0  0  0  0  0999 V2000
    0.0000    1.1886    0.0000 C   0  0  0  0  0  0  0  0  0  0  0  0
    1.2124    0.4886    0.0000 C   0  0  0  0  0  0  0  0  0  0  0  0
    2.4249    1.1886    0.0000 C   0  0  0  0  0  0  0  0  0  0  0  0
    2.4249    2.5886    0.0000 C   0  0  0  0  0  0  0  0  0  0  0  0
    1.2124    3.2886    0.0000 C   0  0  0  0  0  0  0  0  0  0  0  0
    0.0000    2.5886    0.0000 C   0  0  0  0  0  0  0  0  0  0  0  0
    3.6373    0.4886    0.0000 N   0  0  0  0  0  0  0  0  0  0  0  0
    4.6273    1.0893    0.0000 C   0  0  0  0  0  0  0  0  0  0  0  0
    5.8397    0.3893    0.0000 N   0  0  0  0  0  0  0  0  0  0  0  0
    4.6273    2.4893    0.0000 O   0  0  0  0  0  0  0  0  0  0  0  0
    6.8296    0.9899    0.0000 C   0  0  0  0  0  0  0  0  0  0  0  0
    8.0421    0.2899    0.0000 C   0  0  0  0  0  0  0  0  0  0  0  0
    9.2545    0.9900    0.0000 C   0  0  0  0  0  0  0  0  0  0  0  0
    9.9545    2.2024    0.0000 C   0  0  0  0  0  0  0  0  0  0  0  0
   11.3068    1.8400    0.0000 C   0  0  0  0  0  0  0  0  0  0  0  0
   10.2445    0.0000    0.0000 O   0  0  0  0  0  0  0  0  0  0  0  0
   11.5968    0.3623    0.0000 C   0  0  0  0  0  0  0  0  0  0  0  0
  1  2  1  0  0  0  0
  2  3  1  0  0  0  0
  3  4  1  0  0  0  0
  4  5  1  0  0  0  0
  5  6  1  0  0  0  0
  6  1  1  0  0  0  0
  3  7  1  0  0  0  0
  7  8  1  0  0  0  0
  8  9  1  0  0  0  0
  8 10  2  0  0  0  0
  9 11  1  0  0  0  0
 11 12  1  0  0  0  0
 12 13  1  0  0  0  0
 13 14  1  0  0  0  0
 14 15  1  0  0  0  0
 13 16  1  0  0  0  0
 16 17  1  0  0  0  0
 15 17  1  0  0  0  0
M  END
> <Molecule Name>
383

> <CDD Number>
CDD-15940

> <Human_sEH_IC50_uM>
9.0

> <Mouse_sEH_IC50_uM>
5.1

$$$$

SketchEl molfile

 15 14  0  0  0  0  0  0  0  0999 V2000
    6.0622    0.7993    0.0000 C   0  0  0  0  0  0  0  0  0  0  0  0
    7.2746    0.0993    0.0000 C   0  0  0  0  0  0  0  0  0  0  0  0
    8.4870    0.7993    0.0000 C   0  0  0  0  0  0  0  0  0  0  0  0
    9.6995    0.0993    0.0000 N   0  0  0  0  0  0  0  0  0  0  0  0
   10.9119    0.7993    0.0000 C   0  0  0  0  0  0  0  0  0  0  0  0
   12.1244    0.0993    0.0000 N   0  0  0  0  0  0  0  0  0  0  0  0
   10.9119    2.1993    0.0000 O   0  0  0  0  0  0  0  0  0  0  0  0
    4.8497    0.0993    0.0000 C   0  0  0  0  0  0  0  0  0  0  0  0
    3.6373    0.7993    0.0000 C   0  0  0  0  0  0  0  0  0  0  0  0
    2.4249    0.0993    0.0000 C   0  0  0  0  0  0  0  0  0  0  0  0
    1.2124    0.7993    0.0000 C   0  0  0  0  0  0  0  0  0  0  0  0
    0.0000    0.0993    0.0000 C   0  0  0  0  0  0  0  0  0  0  0  0
   13.1143    0.7000    0.0000 C   0  0  0  0  0  0  0  0  0  0  0  0
   14.3267    0.0000    0.0000 C   0  0  0  0  0  0  0  0  0  0  0  0
   15.7267    0.0000    0.0000 C   0  0  0  0  0  0  0  0  0  0  0  0
  1  2  1  0  0  0  0
  2  3  1  0  0  0  0
  3  4  1  0  0  0  0
  4  5  1  0  0  0  0
  5  6  1  0  0  0  0
  5  7  2  0  0  0  0
  1  8  1  0  0  0  0
  8  9  1  0  0  0  0
  9 10  1  0  0  0  0
 10 11  1  0  0  0  0
 11 12  1  0  0  0  0
  6 13  1  0  0  0  0
 13 14  1  0  0  0  0
 14 15  2  0  0  0  0
M  END
> <Molecule Name>
382

> <CDD Number>
CDD-15818

> <Human_sEH_IC50_uM>
6.0

> <Mouse_sEH_IC50_uM>
1.2

$$$$

SketchEl molfile

 19 20  0  0  0  0  0  0  0  0999 V2000
    0.0000    4.2000    0.0000 C   0  0  0  0  0  0  0  0  0  0  0  0
    0.0000    2.8000    0.0000 C   0  0  0  0  0  0  0  0  0  0  0  0
    1.2124    2.1000    0.0000 C   0  0  0  0  0  0  0  0  0  0  0  0
    2.4249    2.8000    0.0000 C   0  0  0  0  0  0  0  0  0  0  0  0
    2.4249    4.2000    0.0000 C   0  0  0  0  0  0  0  0  0  0  0  0
    1.2124    4.9000    0.0000 C   0  0  0  0  0  0  0  0  0  0  0  0
    3.6373    2.1000    0.0000 N   0  0  0  0  0  0  0  0  0  0  0  0
    4.8497    2.8000    0.0000 C   0  0  0  0  0  0  0  0  0  0  0  0
    6.0622    2.1000    0.0000 C   0  0  0  0  0  0  0  0  0  0  0  0
    4.8497    4.2000    0.0000 O   0  0  0  0  0  0  0  0  0  0  0  0
    7.2746    2.8000    0.0000 C   0  0  0  0  0  0  0  0  0  0  0  0
    8.4870    2.1000    0.0000 C   0  0  0  0  0  0  0  0  0  0  0  0
    9.6995    2.8000    0.0000 C   0  0  0  0  0  0  0  0  0  0  0  0
   10.9119    2.1000    0.0000 C   0  0  0  0  0  0  0  0  0  0  0  0
   10.9119    0.7000    0.0000 C   0  0  0  0  0  0  0  0  0  0  0  0
   12.1244    0.0000    0.0000 C   0  0  0  0  0  0  0  0  0  0  0  0
   13.3368    0.7000    0.0000 C   0  0  0  0  0  0  0  0  0  0  0  0
   13.3368    2.1000    0.0000 C   0  0  0  0  0  0  0  0  0  0  0  0
   12.1244    2.8000    0.0000 C   0  0  0  0  0  0  0  0  0  0  0  0
  1  2  1  0  0  0  0
  2  3  1  0  0  0  0
  3  4  1  0  0  0  0
  4  5  1  0  0  0  0
  5  6  1  0  0  0  0
  6  1  1  0  0  0  0
  4  7  1  0  0  0  0
  7  8  1  0  0  0  0
  8  9  1  0  0  0  0
  8 10  2  0  0  0  0
  9 11  1  0  0  0  0
 11 12  1  0  0  0  0
 12 13  1  0  0  0  0
 13 14  1  0  0  0  0
 14 15  2  0  0  0  0
 15 16  1  0  0  0  0
 16 17  2  0  0  0  0
 17 18  1  0  0  0  0
 18 19  2  0  0  0  0
 19 14  1  0  0  0  0
M  END
> <Molecule Name>
381

> <CDD Number>
CDD-16165

> <Human_sEH_IC50_uM>
0.68

> <Mouse_sEH_IC50_uM>
0.06

$$$$

SketchEl molfile

 19 20  0  0  0  0  0  0  0  0999 V2000
    0.0000    4.2000    0.0000 C   0  0  0  0  0  0  0  0  0  0  0  0
    0.0000    2.8000    0.0000 C   0  0  0  0  0  0  0  0  0  0  0  0
    1.2124    2.1000    0.0000 C   0  0  0  0  0  0  0  0  0  0  0  0
    2.4249    2.8000    0.0000 C   0  0  0  0  0  0  0  0  0  0  0  0
    2.4249    4.2000    0.0000 C   0  0  0  0  0  0  0  0  0  0  0  0
    1.2124    4.9000    0.0000 C   0  0  0  0  0  0  0  0  0  0  0  0
    3.6373    2.1000    0.0000 N   0  0  0  0  0  0  0  0  0  0  0  0
    4.8497    2.8000    0.0000 C   0  0  0  0  0  0  0  0  0  0  0  0
    6.0622    2.1000    0.0000 C   0  0  0  0  0  0  0  0  0  0  0  0
    4.8497    4.2000    0.0000 O   0  0  0  0  0  0  0  0  0  0  0  0
    7.2746    2.8000    0.0000 C   0  0  0  0  0  0  0  0  0  0  0  0
    8.4870    2.1000    0.0000 C   0  0  0  0  0  0  0  0  0  0  0  0
    9.6995    2.8000    0.0000 C   0  0  0  0  0  0  0  0  0  0  0  0
   10.9119    2.1000    0.0000 C   0  0  0  0  0  0  0  0  0  0  0  0
   10.9119    0.7000    0.0000 C   0  0  0  0  0  0  0  0  0  0  0  0
   12.1244    0.0000    0.0000 C   0  0  0  0  0  0  0  0  0  0  0  0
   13.3368    0.7000    0.0000 C   0  0  0  0  0  0  0  0  0  0  0  0
   13.3368    2.1000    0.0000 C   0  0  0  0  0  0  0  0  0  0  0  0
   12.1244    2.8000    0.0000 C   0  0  0  0  0  0  0  0  0  0  0  0
  1  2  1  0  0  0  0
  2  3  1  0  0  0  0
  3  4  1  0  0  0  0
  4  5  1  0  0  0  0
  5  6  1  0  0  0  0
  6  1  1  0  0  0  0
  4  7  1  0  0  0  0
  7  8  1  0  0  0  0
  8  9  1  0  0  0  0
  8 10  2  0  0  0  0
  9 11  1  0  0  0  0
 11 12  1  0  0  0  0
 12 13  1  0  0  0  0
 13 14  1  0  0  0  0
 14 15  2  0  0  0  0
 15 16  1  0  0  0  0
 16 17  2  0  0  0  0
 17 18  1  0  0  0  0
 18 19  2  0  0  0  0
 19 14  1  0  0  0  0
M  END
> <Molecule Name>
381

> <CDD Number>
CDD-16165

> <Human_sEH_IC50_uM>
1.6

> <Mouse_sEH_IC50_uM>
0.05

$$$$

SketchEl molfile

 15 14  0  0  0  0  0  0  0  0999 V2000
    6.0622    0.7993    0.0000 C   0  0  0  0  0  0  0  0  0  0  0  0
    7.2746    0.0993    0.0000 C   0  0  0  0  0  0  0  0  0  0  0  0
    8.4870    0.7993    0.0000 C   0  0  0  0  0  0  0  0  0  0  0  0
    9.6995    0.0993    0.0000 N   0  0  0  0  0  0  0  0  0  0  0  0
   10.9119    0.7993    0.0000 C   0  0  0  0  0  0  0  0  0  0  0  0
   12.1244    0.0993    0.0000 N   0  0  0  0  0  0  0  0  0  0  0  0
   10.9119    2.1993    0.0000 O   0  0  0  0  0  0  0  0  0  0  0  0
    4.8497    0.0993    0.0000 C   0  0  0  0  0  0  0  0  0  0  0  0
    3.6373    0.7993    0.0000 C   0  0  0  0  0  0  0  0  0  0  0  0
    2.4249    0.0993    0.0000 C   0  0  0  0  0  0  0  0  0  0  0  0
    1.2124    0.7993    0.0000 C   0  0  0  0  0  0  0  0  0  0  0  0
    0.0000    0.0993    0.0000 C   0  0  0  0  0  0  0  0  0  0  0  0
   13.1143    0.7000    0.0000 C   0  0  0  0  0  0  0  0  0  0  0  0
   14.3267    0.0000    0.0000 C   0  0  0  0  0  0  0  0  0  0  0  0
   15.5392    0.7000    0.0000 C   0  0  0  0  0  0  0  0  0  0  0  0
  1  2  1  0  0  0  0
  2  3  1  0  0  0  0
  3  4  1  0  0  0  0
  4  5  1  0  0  0  0
  5  6  1  0  0  0  0
  5  7  2  0  0  0  0
  1  8  1  0  0  0  0
  8  9  1  0  0  0  0
  9 10  1  0  0  0  0
 10 11  1  0  0  0  0
 11 12  1  0  0  0  0
  6 13  1  0  0  0  0
 13 14  1  0  0  0  0
 14 15  1  0  0  0  0
M  END
> <Molecule Name>
380

> <CDD Number>
CDD-15817

> <Human_sEH_IC50_uM>
0.68

> <Mouse_sEH_IC50_uM>
0.73

$$$$

SketchEl molfile

 18 19  0  0  0  0  0  0  0  0999 V2000
    7.2746    2.8000    0.0000 C   0  0  0  0  0  0  0  0  0  0  0  0
    6.0622    2.1000    0.0000 N   0  0  0  0  0  0  0  0  0  0  0  0
    4.8497    2.8000    0.0000 C   0  0  0  0  0  0  0  0  0  0  0  0
    3.6373    2.1000    0.0000 N   0  0  0  0  0  0  0  0  0  0  0  0
    4.8497    4.2000    0.0000 O   0  0  0  0  0  0  0  0  0  0  0  0
    2.4249    2.8000    0.0000 C   0  0  0  0  0  0  0  0  0  0  0  0
    2.4249    4.2000    0.0000 C   0  0  0  0  0  0  0  0  0  0  0  0
    1.2124    4.9000    0.0000 C   0  0  0  0  0  0  0  0  0  0  0  0
    0.0000    4.2000    0.0000 C   0  0  0  0  0  0  0  0  0  0  0  0
    0.0000    2.8000    0.0000 C   0  0  0  0  0  0  0  0  0  0  0  0
    1.2124    2.1000    0.0000 C   0  0  0  0  0  0  0  0  0  0  0  0
    8.4870    2.1000    0.0000 C   0  0  0  0  0  0  0  0  0  0  0  0
    8.4870    0.7000    0.0000 C   0  0  0  0  0  0  0  0  0  0  0  0
    9.6995    0.0000    0.0000 C   0  0  0  0  0  0  0  0  0  0  0  0
   10.9119    0.7000    0.0000 C   0  0  0  0  0  0  0  0  0  0  0  0
   10.9119    2.1000    0.0000 C   0  0  0  0  0  0  0  0  0  0  0  0
    9.6995    2.8000    0.0000 C   0  0  0  0  0  0  0  0  0  0  0  0
   12.1244    0.0000    0.0000 N   0  0  0  0  0  0  0  0  0  0  0  0
  1  2  1  0  0  0  0
  2  3  1  0  0  0  0
  3  4  1  0  0  0  0
  3  5  2  0  0  0  0
  4  6  1  0  0  0  0
  6  7  1  0  0  0  0
  7  8  1  0  0  0  0
  8  9  1  0  0  0  0
  9 10  1  0  0  0  0
 10 11  1  0  0  0  0
 11  6  1  0  0  0  0
  1 12  1  0  0  0  0
 12 13  2  0  0  0  0
 13 14  1  0  0  0  0
 14 15  2  0  0  0  0
 15 16  1  0  0  0  0
 16 17  2  0  0  0  0
 17 12  1  0  0  0  0
 15 18  1  0  0  0  0
M  END
> <Molecule Name>
379

> <CDD Number>
CDD-15888

> <Human_sEH_IC50_uM>
1.5

> <Mouse_sEH_IC50_uM>
0.05

$$$$

SketchEl molfile

 19 18  0  0  0  0  0  0  0  0999 V2000
   10.9119    0.7993    0.0000 C   0  0  0  0  0  0  0  0  0  0  0  0
   12.1244    0.0993    0.0000 C   0  0  0  0  0  0  0  0  0  0  0  0
   13.3368    0.7993    0.0000 C   0  0  0  0  0  0  0  0  0  0  0  0
   14.5492    0.0993    0.0000 N   0  0  0  0  0  0  0  0  0  0  0  0
   15.7617    0.7993    0.0000 C   0  0  0  0  0  0  0  0  0  0  0  0
   16.9741    0.0993    0.0000 N   0  0  0  0  0  0  0  0  0  0  0  0
   15.7617    2.1993    0.0000 O   0  0  0  0  0  0  0  0  0  0  0  0
    9.6995    0.0993    0.0000 C   0  0  0  0  0  0  0  0  0  0  0  0
    8.4870    0.7993    0.0000 C   0  0  0  0  0  0  0  0  0  0  0  0
    7.2746    0.0993    0.0000 C   0  0  0  0  0  0  0  0  0  0  0  0
    6.0622    0.7993    0.0000 C   0  0  0  0  0  0  0  0  0  0  0  0
    4.8497    0.0993    0.0000 C   0  0  0  0  0  0  0  0  0  0  0  0
    3.6373    0.7993    0.0000 C   0  0  0  0  0  0  0  0  0  0  0  0
    2.4249    0.0993    0.0000 C   0  0  0  0  0  0  0  0  0  0  0  0
    1.2124    0.7993    0.0000 C   0  0  0  0  0  0  0  0  0  0  0  0
    0.0000    0.0993    0.0000 C   0  0  0  0  0  0  0  0  0  0  0  0
   17.9640    0.7000    0.0000 C   0  0  0  0  0  0  0  0  0  0  0  0
   19.1765    0.0000    0.0000 C   0  0  0  0  0  0  0  0  0  0  0  0
   20.5765    0.0000    0.0000 C   0  0  0  0  0  0  0  0  0  0  0  0
  1  2  1  0  0  0  0
  2  3  1  0  0  0  0
  3  4  1  0  0  0  0
  4  5  1  0  0  0  0
  5  6  1  0  0  0  0
  5  7  2  0  0  0  0
  1  8  1  0  0  0  0
  8  9  1  0  0  0  0
  9 10  1  0  0  0  0
 10 11  1  0  0  0  0
 11 12  1  0  0  0  0
 12 13  1  0  0  0  0
 13 14  1  0  0  0  0
 14 15  1  0  0  0  0
 15 16  1  0  0  0  0
  6 17  1  0  0  0  0
 17 18  1  0  0  0  0
 18 19  2  0  0  0  0
M  END
> <Molecule Name>
378

> <CDD Number>
CDD-15840

> <Human_sEH_IC50_uM>
500.0

> <Mouse_sEH_IC50_uM>
500.0

$$$$

SketchEl molfile

 19 20  0  0  0  0  0  0  0  0999 V2000
    0.0000    4.2199    0.0000 C   0  0  0  0  0  0  0  0  0  0  0  0
    0.0000    2.8199    0.0000 C   0  0  0  0  0  0  0  0  0  0  0  0
    1.2124    2.1199    0.0000 C   0  0  0  0  0  0  0  0  0  0  0  0
    2.4249    2.8199    0.0000 C   0  0  0  0  0  0  0  0  0  0  0  0
    2.4249    4.2199    0.0000 C   0  0  0  0  0  0  0  0  0  0  0  0
    1.2124    4.9199    0.0000 C   0  0  0  0  0  0  0  0  0  0  0  0
    3.6373    2.1199    0.0000 N   0  0  0  0  0  0  0  0  0  0  0  0
    4.8497    2.8199    0.0000 C   0  0  0  0  0  0  0  0  0  0  0  0
    6.0622    2.1199    0.0000 N   0  0  0  0  0  0  0  0  0  0  0  0
    4.8497    4.2199    0.0000 O   0  0  0  0  0  0  0  0  0  0  0  0
    7.0521    2.7206    0.0000 C   0  0  0  0  0  0  0  0  0  0  0  0
    8.2795    2.0472    0.0000 C   0  0  0  0  0  0  0  0  0  0  0  0
    9.4764    2.7734    0.0000 C   0  0  0  0  0  0  0  0  0  0  0  0
   10.7038    2.1000    0.0000 N   0  0  0  0  0  0  0  0  0  0  0  0
   10.7038    0.7000    0.0000 C   0  0  0  0  0  0  0  0  0  0  0  0
   11.9163    0.0000    0.0000 C   0  0  0  0  0  0  0  0  0  0  0  0
   13.1287    0.7000    0.0000 O   0  0  0  0  0  0  0  0  0  0  0  0
   13.1287    2.1000    0.0000 C   0  0  0  0  0  0  0  0  0  0  0  0
   11.9163    2.8000    0.0000 C   0  0  0  0  0  0  0  0  0  0  0  0
  1  2  1  0  0  0  0
  2  3  1  0  0  0  0
  3  4  1  0  0  0  0
  4  5  1  0  0  0  0
  5  6  1  0  0  0  0
  6  1  1  0  0  0  0
  4  7  1  0  0  0  0
  7  8  1  0  0  0  0
  8  9  1  0  0  0  0
  8 10  2  0  0  0  0
  9 11  1  0  0  0  0
 11 12  1  0  0  0  0
 12 13  1  0  0  0  0
 13 14  1  0  0  0  0
 14 15  1  0  0  0  0
 15 16  1  0  0  0  0
 16 17  1  0  0  0  0
 17 18  1  0  0  0  0
 18 19  1  0  0  0  0
 19 14  1  0  0  0  0
M  END
> <Molecule Name>
377

> <CDD Number>
CDD-15949

> <Human_sEH_IC50_uM>
17.8

> <Mouse_sEH_IC50_uM>
0.7

$$$$

SketchEl molfile

 18 17  0  0  0  0  0  0  0  0999 V2000
    9.6995    0.7728    0.0000 C   0  0  0  0  0  0  0  0  0  0  0  0
   10.9119    0.0728    0.0000 C   0  0  0  0  0  0  0  0  0  0  0  0
   12.1244    0.7728    0.0000 C   0  0  0  0  0  0  0  0  0  0  0  0
   13.3368    0.0728    0.0000 N   0  0  0  0  0  0  0  0  0  0  0  0
   14.5492    0.7728    0.0000 C   0  0  0  0  0  0  0  0  0  0  0  0
   15.7617    0.0728    0.0000 N   0  0  0  0  0  0  0  0  0  0  0  0
   14.5492    2.1728    0.0000 O   0  0  0  0  0  0  0  0  0  0  0  0
    8.4870    0.0728    0.0000 C   0  0  0  0  0  0  0  0  0  0  0  0
    7.2746    0.7728    0.0000 C   0  0  0  0  0  0  0  0  0  0  0  0
    6.0622    0.0728    0.0000 C   0  0  0  0  0  0  0  0  0  0  0  0
    4.8497    0.7728    0.0000 C   0  0  0  0  0  0  0  0  0  0  0  0
    3.6373    0.0727    0.0000 C   0  0  0  0  0  0  0  0  0  0  0  0
   16.7516    0.6734    0.0000 C   0  0  0  0  0  0  0  0  0  0  0  0
    2.4249    0.7727    0.0000 C   0  0  0  0  0  0  0  0  0  0  0  0
    1.2124    0.0727    0.0000 C   0  0  0  0  0  0  0  0  0  0  0  0
   17.9790    0.0000    0.0000 C   0  0  0  0  0  0  0  0  0  0  0  0
   19.1759    0.7262    0.0000 C   0  0  0  0  0  0  0  0  0  0  0  0
    0.0000    0.7727    0.0000 C   0  0  0  0  0  0  0  0  0  0  0  0
  1  2  1  0  0  0  0
  2  3  1  0  0  0  0
  3  4  1  0  0  0  0
  4  5  1  0  0  0  0
  5  6  1  0  0  0  0
  5  7  2  0  0  0  0
  1  8  1  0  0  0  0
  8  9  1  0  0  0  0
  9 10  1  0  0  0  0
 10 11  1  0  0  0  0
 11 12  1  0  0  0  0
  6 13  1  0  0  0  0
 12 14  1  0  0  0  0
 14 15  1  0  0  0  0
 13 16  1  0  0  0  0
 16 17  1  0  0  0  0
 15 18  1  0  0  0  0
M  END
> <Molecule Name>
376

> <CDD Number>
CDD-15834

> <Human_sEH_IC50_uM>
50.0

> <Mouse_sEH_IC50_uM>
50.0

$$$$

SketchEl molfile

 22 24  0  0  0  0  0  0  0  0999 V2000
    9.3627    3.6125    0.0000 C   0  0  0  0  0  0  0  0  0  0  0  0
    8.6627    2.4000    0.0000 C   0  0  0  0  0  0  0  0  0  0  0  0
   10.0088    2.7848    0.0000 C   0  0  0  0  0  0  0  0  0  0  0  0
   11.3631    2.4000    0.0000 C   0  0  0  0  0  0  0  0  0  0  0  0
   12.0633    3.6125    0.0000 C   0  0  0  0  0  0  0  0  0  0  0  0
   10.7170    3.2279    0.0000 C   0  0  0  0  0  0  0  0  0  0  0  0
   12.0633    5.0125    0.0000 C   0  0  0  0  0  0  0  0  0  0  0  0
   10.0088    4.1848    0.0000 C   0  0  0  0  0  0  0  0  0  0  0  0
    9.3627    5.0125    0.0000 C   0  0  0  0  0  0  0  0  0  0  0  0
   10.7088    5.3972    0.0000 C   0  0  0  0  0  0  0  0  0  0  0  0
    7.4503    1.7000    0.0000 N   0  0  0  0  0  0  0  0  0  0  0  0
    6.1240    2.6900    0.0000 C   0  0  0  0  0  0  0  0  0  0  0  0
    4.9116    1.9900    0.0000 N   0  0  0  0  0  0  0  0  0  0  0  0
    6.1240    4.0900    0.0000 O   0  0  0  0  0  0  0  0  0  0  0  0
    3.3629    2.6900    0.0000 C   0  0  0  0  0  0  0  0  0  0  0  0
    2.7863    1.4142    0.0000 C   0  0  0  0  0  0  0  0  0  0  0  0
    1.3931    1.2757    0.0000 C   0  0  0  0  0  0  0  0  0  0  0  0
    0.0000    1.1372    0.0000 C   0  0  0  0  0  0  0  0  0  0  0  0
    0.5766    2.4130    0.0000 C   0  0  0  0  0  0  0  0  0  0  0  0
    0.8165    0.0000    0.0000 C   0  0  0  0  0  0  0  0  0  0  0  0
    2.0871    3.2666    0.0000 C   0  0  0  0  0  0  0  0  0  0  0  0
    3.9395    3.9657    0.0000 C   0  0  0  0  0  0  0  0  0  0  0  0
  1  2  1  0  0  0  0
  2  3  1  0  0  0  0
  3  4  1  0  0  0  0
  4  5  1  0  0  0  0
  5  6  1  0  0  0  0
  6  1  1  0  0  0  0
  5  7  1  0  0  0  0
  3  8  1  0  0  0  0
  1  9  1  0  0  0  0
  8 10  1  0  0  0  0
  9 10  1  0  0  0  0
 10  7  1  0  0  0  0
  2 11  1  0  0  0  0
 11 12  1  0  0  0  0
 12 13  1  0  0  0  0
 12 14  2  0  0  0  0
 13 15  1  0  0  0  0
 15 16  1  0  0  0  0
 16 17  1  0  0  0  0
 17 18  1  0  0  0  0
 17 19  1  0  0  0  0
 17 20  1  0  0  0  0
 15 21  1  0  0  0  0
 15 22  1  0  0  0  0
M  END
> <Molecule Name>
375

> <CDD Number>
CDD-15805

> <Human_sEH_IC50_uM>
0.11

> <Mouse_sEH_IC50_uM>
0.18

$$$$

SketchEl molfile

 16 17  0  0  0  0  0  0  0  0999 V2000
    0.0000    0.7000    0.0000 C   0  0  0  0  0  0  0  0  0  0  0  0
    1.2124    0.0000    0.0000 C   0  0  0  0  0  0  0  0  0  0  0  0
    2.4249    0.7000    0.0000 C   0  0  0  0  0  0  0  0  0  0  0  0
    2.4249    2.1000    0.0000 C   0  0  0  0  0  0  0  0  0  0  0  0
    1.2124    2.8000    0.0000 C   0  0  0  0  0  0  0  0  0  0  0  0
    0.0000    2.1000    0.0000 C   0  0  0  0  0  0  0  0  0  0  0  0
    3.6373    2.8000    0.0000 C   0  0  0  0  0  0  0  0  0  0  0  0
    4.8497    2.1000    0.0000 N   0  0  0  0  0  0  0  0  0  0  0  0
    3.6373    4.2000    0.0000 O   0  0  0  0  0  0  0  0  0  0  0  0
    6.0622    2.8000    0.0000 C   0  0  0  0  0  0  0  0  0  0  0  0
    7.2746    2.1000    0.0000 C   0  0  0  0  0  0  0  0  0  0  0  0
    7.2746    0.7000    0.0000 C   0  0  0  0  0  0  0  0  0  0  0  0
    8.4870    0.0000    0.0000 C   0  0  0  0  0  0  0  0  0  0  0  0
    9.6995    0.7000    0.0000 C   0  0  0  0  0  0  0  0  0  0  0  0
    9.6995    2.1000    0.0000 C   0  0  0  0  0  0  0  0  0  0  0  0
    8.4870    2.8000    0.0000 C   0  0  0  0  0  0  0  0  0  0  0  0
  1  2  1  0  0  0  0
  2  3  1  0  0  0  0
  3  4  1  0  0  0  0
  4  5  1  0  0  0  0
  5  6  1  0  0  0  0
  6  1  1  0  0  0  0
  4  7  1  0  0  0  0
  7  8  1  0  0  0  0
  7  9  2  0  0  0  0
  8 10  1  0  0  0  0
 10 11  1  0  0  0  0
 11 12  1  0  0  0  0
 12 13  1  0  0  0  0
 13 14  1  0  0  0  0
 14 15  1  0  0  0  0
 15 16  1  0  0  0  0
 16 11  1  0  0  0  0
M  END
> <Molecule Name>
374

> <CDD Number>
CDD-16153

> <Human_sEH_IC50_uM>
2.03

> <Mouse_sEH_IC50_uM>
0.25

$$$$

SketchEl molfile

 15 16  0  0  0  0  0  0  0  0999 V2000
    0.0000    4.2000    0.0000 C   0  0  0  0  0  0  0  0  0  0  0  0
    0.0000    2.8000    0.0000 C   0  0  0  0  0  0  0  0  0  0  0  0
    1.2124    2.1000    0.0000 C   0  0  0  0  0  0  0  0  0  0  0  0
    2.4249    2.8000    0.0000 C   0  0  0  0  0  0  0  0  0  0  0  0
    2.4249    4.2000    0.0000 C   0  0  0  0  0  0  0  0  0  0  0  0
    1.2124    4.9000    0.0000 C   0  0  0  0  0  0  0  0  0  0  0  0
    3.6373    2.1000    0.0000 C   0  0  0  0  0  0  0  0  0  0  0  0
    4.8497    2.8000    0.0000 N   0  0  0  0  0  0  0  0  0  0  0  0
    3.6373    0.7000    0.0000 O   0  0  0  0  0  0  0  0  0  0  0  0
    6.0622    2.1000    0.0000 C   0  0  0  0  0  0  0  0  0  0  0  0
    6.0622    0.7000    0.0000 C   0  0  0  0  0  0  0  0  0  0  0  0
    7.2746    0.0000    0.0000 C   0  0  0  0  0  0  0  0  0  0  0  0
    8.4870    0.7000    0.0000 C   0  0  0  0  0  0  0  0  0  0  0  0
    8.4870    2.1000    0.0000 C   0  0  0  0  0  0  0  0  0  0  0  0
    7.2746    2.8000    0.0000 C   0  0  0  0  0  0  0  0  0  0  0  0
  1  2  1  0  0  0  0
  2  3  1  0  0  0  0
  3  4  1  0  0  0  0
  4  5  1  0  0  0  0
  5  6  1  0  0  0  0
  6  1  1  0  0  0  0
  4  7  1  0  0  0  0
  7  8  1  0  0  0  0
  7  9  2  0  0  0  0
  8 10  1  0  0  0  0
 10 11  1  0  0  0  0
 11 12  1  0  0  0  0
 12 13  1  0  0  0  0
 13 14  1  0  0  0  0
 14 15  1  0  0  0  0
 15 10  1  0  0  0  0
M  END
> <Molecule Name>
373

> <CDD Number>
CDD-16151

> <Human_sEH_IC50_uM>
1.3

> <Mouse_sEH_IC50_uM>
1.4

$$$$

SketchEl molfile

  6  5  0  0  0  0  0  0  0  0999 V2000
    0.0000    0.9899    0.0000 N   0  0  0  0  0  0  0  0  0  0  0  0
    1.4000    0.9899    0.0000 C   0  0  0  0  0  0  0  0  0  0  0  0
    2.3899    0.0000    0.0000 O   0  0  0  0  0  0  0  0  0  0  0  0
    3.6024    0.7000    0.0000 C   0  0  0  0  0  0  0  0  0  0  0  0
    4.8148    0.0000    0.0000 N   0  0  0  0  0  0  0  0  0  0  0  0
    3.6024    2.1000    0.0000 O   0  0  0  0  0  0  0  0  0  0  0  0
  1  2  3  0  0  0  0
  2  3  1  0  0  0  0
  3  4  1  0  0  0  0
  4  5  1  0  0  0  0
  4  6  2  0  0  0  0
M  END
> <Molecule Name>
371

> <CDD Number>
CDD-16109

> <Human_sEH_IC50_uM>
500.0

> <Mouse_sEH_IC50_uM>
450.0

$$$$

SketchEl molfile

 15 14  0  0  0  0  0  0  0  0999 V2000
    0.0000    3.4148    0.0000 N   0  0  0  0  0  0  0  0  0  0  0  0
    1.2124    4.1148    0.0000 C   0  0  0  0  0  0  0  0  0  0  0  0
    2.4249    3.4148    0.0000 O   0  0  0  0  0  0  0  0  0  0  0  0
    1.2124    5.5148    0.0000 O   0  0  0  0  0  0  0  0  0  0  0  0
    3.6373    4.1148    0.0000 C   0  0  0  0  0  0  0  0  0  0  0  0
    4.8497    3.4148    0.0000 C   0  0  0  0  0  0  0  0  0  0  0  0
    6.0622    4.1148    0.0000 C   0  0  0  0  0  0  0  0  0  0  0  0
    7.2746    3.4148    0.0000 O   0  0  0  0  0  0  0  0  0  0  0  0
    3.8598    2.4249    0.0000 C   0  0  0  0  0  0  0  0  0  0  0  0
    5.8397    2.4249    0.0000 C   0  0  0  0  0  0  0  0  0  0  0  0
    5.1397    1.2124    0.0000 C   0  0  0  0  0  0  0  0  0  0  0  0
    5.8397    0.0000    0.0000 C   0  0  0  0  0  0  0  0  0  0  0  0
    8.4870    4.1148    0.0000 C   0  0  0  0  0  0  0  0  0  0  0  0
    9.6994    3.4147    0.0000 N   0  0  0  0  0  0  0  0  0  0  0  0
    8.4870    5.5148    0.0000 O   0  0  0  0  0  0  0  0  0  0  0  0
  1  2  1  0  0  0  0
  2  3  1  0  0  0  0
  2  4  2  0  0  0  0
  3  5  1  0  0  0  0
  5  6  1  0  0  0  0
  6  7  1  0  0  0  0
  7  8  1  0  0  0  0
  6  9  1  0  0  0  0
  6 10  1  0  0  0  0
 10 11  1  0  0  0  0
 11 12  1  0  0  0  0
  8 13  1  0  0  0  0
 13 14  1  0  0  0  0
 13 15  2  0  0  0  0
M  END
> <Molecule Name>
363

> <CDD Number>
CDD-16074

> <Human_sEH_IC50_uM>
500.0

> <Mouse_sEH_IC50_uM>
500.0

$$$$

SketchEl molfile

 19 20  0  0  0  0  0  0  0  0999 V2000
    7.2746    0.7000    0.0000 C   0  0  0  0  0  0  0  0  0  0  0  0
    6.0622    0.0000    0.0000 N   0  0  0  0  0  0  0  0  0  0  0  0
    4.8497    0.7000    0.0000 C   0  0  0  0  0  0  0  0  0  0  0  0
    3.6373    0.0000    0.0000 N   0  0  0  0  0  0  0  0  0  0  0  0
    4.8497    2.1000    0.0000 O   0  0  0  0  0  0  0  0  0  0  0  0
    2.4249    0.7000    0.0000 C   0  0  0  0  0  0  0  0  0  0  0  0
    2.4249    2.1000    0.0000 C   0  0  0  0  0  0  0  0  0  0  0  0
    1.2124    2.8000    0.0000 C   0  0  0  0  0  0  0  0  0  0  0  0
    0.0000    2.1000    0.0000 C   0  0  0  0  0  0  0  0  0  0  0  0
    0.0000    0.7000    0.0000 C   0  0  0  0  0  0  0  0  0  0  0  0
    1.2124    0.0000    0.0000 C   0  0  0  0  0  0  0  0  0  0  0  0
    8.4870    0.0000    0.0000 C   0  0  0  0  0  0  0  0  0  0  0  0
    9.6995    0.7000    0.0000 C   0  0  0  0  0  0  0  0  0  0  0  0
    9.6995    2.1000    0.0000 C   0  0  0  0  0  0  0  0  0  0  0  0
    8.4870    2.8000    0.0000 C   0  0  0  0  0  0  0  0  0  0  0  0
    7.2746    2.1000    0.0000 C   0  0  0  0  0  0  0  0  0  0  0  0
   10.9119    2.8000    0.0000 N   0  0  0  0  0  0  0  0  0  0  0  0
   10.9119    4.2000    0.0000 C   0  0  0  0  0  0  0  0  0  0  0  0
   12.1244    2.1000    0.0000 C   0  0  0  0  0  0  0  0  0  0  0  0
  1  2  1  0  0  0  0
  2  3  1  0  0  0  0
  3  4  1  0  0  0  0
  3  5  2  0  0  0  0
  4  6  1  0  0  0  0
  6  7  1  0  0  0  0
  7  8  1  0  0  0  0
  8  9  1  0  0  0  0
  9 10  1  0  0  0  0
 10 11  1  0  0  0  0
 11  6  1  0  0  0  0
  1 12  2  0  0  0  0
 12 13  1  0  0  0  0
 13 14  2  0  0  0  0
 14 15  1  0  0  0  0
 15 16  2  0  0  0  0
 16  1  1  0  0  0  0
 14 17  1  0  0  0  0
 17 18  1  0  0  0  0
 17 19  1  0  0  0  0
M  END
> <Molecule Name>
362

> <CDD Number>
CDD-15889

> <Human_sEH_IC50_uM>
1.5

> <Mouse_sEH_IC50_uM>
0.05

$$$$

SketchEl molfile

 19 20  0  0  0  0  0  0  0  0999 V2000
    7.2746    0.7000    0.0000 C   0  0  0  0  0  0  0  0  0  0  0  0
    6.0622    0.0000    0.0000 N   0  0  0  0  0  0  0  0  0  0  0  0
    4.8497    0.7000    0.0000 C   0  0  0  0  0  0  0  0  0  0  0  0
    3.6373    0.0000    0.0000 N   0  0  0  0  0  0  0  0  0  0  0  0
    4.8497    2.1000    0.0000 O   0  0  0  0  0  0  0  0  0  0  0  0
    2.4249    0.7000    0.0000 C   0  0  0  0  0  0  0  0  0  0  0  0
    2.4249    2.1000    0.0000 C   0  0  0  0  0  0  0  0  0  0  0  0
    1.2124    2.8000    0.0000 C   0  0  0  0  0  0  0  0  0  0  0  0
    0.0000    2.1000    0.0000 C   0  0  0  0  0  0  0  0  0  0  0  0
    0.0000    0.7000    0.0000 C   0  0  0  0  0  0  0  0  0  0  0  0
    1.2124    0.0000    0.0000 C   0  0  0  0  0  0  0  0  0  0  0  0
    8.4870    0.0000    0.0000 C   0  0  0  0  0  0  0  0  0  0  0  0
    9.6995    0.7000    0.0000 C   0  0  0  0  0  0  0  0  0  0  0  0
   10.9119    0.0000    0.0000 C   0  0  0  0  0  0  0  0  0  0  0  0
   12.1244    0.7000    0.0000 C   0  0  0  0  0  0  0  0  0  0  0  0
   12.1244    2.1000    0.0000 C   0  0  0  0  0  0  0  0  0  0  0  0
   10.9119    2.8000    0.0000 C   0  0  0  0  0  0  0  0  0  0  0  0
    9.6995    2.1000    0.0000 C   0  0  0  0  0  0  0  0  0  0  0  0
   13.3368    2.8000    0.0000 Cl  0  0  0  0  0  0  0  0  0  0  0  0
  1  2  1  0  0  0  0
  2  3  1  0  0  0  0
  3  4  1  0  0  0  0
  3  5  2  0  0  0  0
  4  6  1  0  0  0  0
  6  7  1  0  0  0  0
  7  8  1  0  0  0  0
  8  9  1  0  0  0  0
  9 10  1  0  0  0  0
 10 11  1  0  0  0  0
 11  6  1  0  0  0  0
  1 12  1  0  0  0  0
 12 13  1  0  0  0  0
 13 14  2  0  0  0  0
 14 15  1  0  0  0  0
 15 16  2  0  0  0  0
 16 17  1  0  0  0  0
 17 18  2  0  0  0  0
 18 13  1  0  0  0  0
 16 19  1  0  0  0  0
M  END
> <Molecule Name>
361

> <CDD Number>
CDD-15882

> <Human_sEH_IC50_uM>
0.2

> <Mouse_sEH_IC50_uM>
0.07

$$$$

SketchEl molfile

 18 19  0  0  0  0  0  0  0  0999 V2000
    0.0000    2.1000    0.0000 C   0  0  0  0  0  0  0  0  0  0  0  0
    0.0000    0.7000    0.0000 C   0  0  0  0  0  0  0  0  0  0  0  0
    1.2124    0.0000    0.0000 C   0  0  0  0  0  0  0  0  0  0  0  0
    2.4249    0.7000    0.0000 C   0  0  0  0  0  0  0  0  0  0  0  0
    2.4249    2.1000    0.0000 C   0  0  0  0  0  0  0  0  0  0  0  0
    1.2124    2.8000    0.0000 C   0  0  0  0  0  0  0  0  0  0  0  0
    3.6373    0.0000    0.0000 N   0  0  0  0  0  0  0  0  0  0  0  0
    4.8497    0.7000    0.0000 C   0  0  0  0  0  0  0  0  0  0  0  0
    6.0622    0.0000    0.0000 N   0  0  0  0  0  0  0  0  0  0  0  0
    4.8497    2.1000    0.0000 O   0  0  0  0  0  0  0  0  0  0  0  0
    7.2746    0.7000    0.0000 C   0  0  0  0  0  0  0  0  0  0  0  0
    8.4870    0.0000    0.0000 C   0  0  0  0  0  0  0  0  0  0  0  0
    9.6995    0.7000    0.0000 C   0  0  0  0  0  0  0  0  0  0  0  0
   10.9119    0.0000    0.0000 C   0  0  0  0  0  0  0  0  0  0  0  0
   12.1244    0.7000    0.0000 C   0  0  0  0  0  0  0  0  0  0  0  0
   12.1244    2.1000    0.0000 C   0  0  0  0  0  0  0  0  0  0  0  0
   10.9119    2.8000    0.0000 C   0  0  0  0  0  0  0  0  0  0  0  0
    9.6995    2.1000    0.0000 C   0  0  0  0  0  0  0  0  0  0  0  0
  1  2  1  0  0  0  0
  2  3  1  0  0  0  0
  3  4  1  0  0  0  0
  4  5  1  0  0  0  0
  5  6  1  0  0  0  0
  6  1  1  0  0  0  0
  4  7  1  0  0  0  0
  7  8  1  0  0  0  0
  8  9  1  0  0  0  0
  8 10  2  0  0  0  0
  9 11  1  0  0  0  0
 11 12  1  0  0  0  0
 12 13  1  0  0  0  0
 13 14  1  0  0  0  0
 14 15  1  0  0  0  0
 15 16  1  0  0  0  0
 16 17  1  0  0  0  0
 17 18  1  0  0  0  0
 18 13  1  0  0  0  0
M  END
> <Molecule Name>
360

> <CDD Number>
CDD-15944

> <Human_sEH_IC50_uM>
0.1

> <Mouse_sEH_IC50_uM>
0.05

$$$$

SketchEl molfile

 18 19  0  0  0  0  0  0  0  0999 V2000
    0.0000    2.1000    0.0000 C   0  0  0  0  0  0  0  0  0  0  0  0
    0.0000    0.7000    0.0000 C   0  0  0  0  0  0  0  0  0  0  0  0
    1.2124    0.0000    0.0000 C   0  0  0  0  0  0  0  0  0  0  0  0
    2.4249    0.7000    0.0000 C   0  0  0  0  0  0  0  0  0  0  0  0
    2.4249    2.1000    0.0000 C   0  0  0  0  0  0  0  0  0  0  0  0
    1.2124    2.8000    0.0000 C   0  0  0  0  0  0  0  0  0  0  0  0
    3.6373    0.0000    0.0000 N   0  0  0  0  0  0  0  0  0  0  0  0
    4.8497    0.7000    0.0000 C   0  0  0  0  0  0  0  0  0  0  0  0
    6.0622    0.0000    0.0000 N   0  0  0  0  0  0  0  0  0  0  0  0
    4.8497    2.1000    0.0000 O   0  0  0  0  0  0  0  0  0  0  0  0
    7.2746    0.7000    0.0000 C   0  0  0  0  0  0  0  0  0  0  0  0
    8.4870    0.0000    0.0000 C   0  0  0  0  0  0  0  0  0  0  0  0
    9.6995    0.7000    0.0000 C   0  0  0  0  0  0  0  0  0  0  0  0
   10.9119    0.0000    0.0000 C   0  0  0  0  0  0  0  0  0  0  0  0
   12.1244    0.7000    0.0000 C   0  0  0  0  0  0  0  0  0  0  0  0
   12.1244    2.1000    0.0000 C   0  0  0  0  0  0  0  0  0  0  0  0
   10.9119    2.8000    0.0000 C   0  0  0  0  0  0  0  0  0  0  0  0
    9.6995    2.1000    0.0000 C   0  0  0  0  0  0  0  0  0  0  0  0
  1  2  1  0  0  0  0
  2  3  1  0  0  0  0
  3  4  1  0  0  0  0
  4  5  1  0  0  0  0
  5  6  1  0  0  0  0
  6  1  1  0  0  0  0
  4  7  1  0  0  0  0
  7  8  1  0  0  0  0
  8  9  1  0  0  0  0
  8 10  2  0  0  0  0
  9 11  1  0  0  0  0
 11 12  1  0  0  0  0
 12 13  1  0  0  0  0
 13 14  2  0  0  0  0
 14 15  1  0  0  0  0
 15 16  1  0  0  0  0
 16 17  1  0  0  0  0
 17 18  1  0  0  0  0
 18 13  1  0  0  0  0
M  END
> <Molecule Name>
359

> <CDD Number>
CDD-15945

> <Human_sEH_IC50_uM>
0.1

> <Mouse_sEH_IC50_uM>
0.05

$$$$

SketchEl molfile

 22 25  0  0  0  0  0  0  0  0999 V2000
    9.1870    1.2124    0.0000 C   0  0  0  0  0  0  0  0  0  0  0  0
    8.4870    0.0000    0.0000 C   0  0  0  0  0  0  0  0  0  0  0  0
    9.8332    0.3847    0.0000 C   0  0  0  0  0  0  0  0  0  0  0  0
   11.1874    0.0000    0.0000 C   0  0  0  0  0  0  0  0  0  0  0  0
   11.8876    1.2124    0.0000 C   0  0  0  0  0  0  0  0  0  0  0  0
   10.5414    0.8278    0.0000 C   0  0  0  0  0  0  0  0  0  0  0  0
   11.8876    2.6124    0.0000 C   0  0  0  0  0  0  0  0  0  0  0  0
    9.8332    1.7847    0.0000 C   0  0  0  0  0  0  0  0  0  0  0  0
    9.1870    2.6124    0.0000 C   0  0  0  0  0  0  0  0  0  0  0  0
   10.5332    2.9972    0.0000 C   0  0  0  0  0  0  0  0  0  0  0  0
    7.2746    0.7000    0.0000 C   0  0  0  0  0  0  0  0  0  0  0  0
    6.0622    0.0000    0.0000 N   0  0  0  0  0  0  0  0  0  0  0  0
    7.2746    2.1000    0.0000 C   0  0  0  0  0  0  0  0  0  0  0  0
    4.8497    0.7000    0.0000 C   0  0  0  0  0  0  0  0  0  0  0  0
    3.6373    0.0000    0.0000 N   0  0  0  0  0  0  0  0  0  0  0  0
    4.8497    2.1000    0.0000 O   0  0  0  0  0  0  0  0  0  0  0  0
    2.4249    0.7000    0.0000 C   0  0  0  0  0  0  0  0  0  0  0  0
    2.4249    2.1000    0.0000 C   0  0  0  0  0  0  0  0  0  0  0  0
    1.2124    2.8000    0.0000 C   0  0  0  0  0  0  0  0  0  0  0  0
    0.0000    2.1000    0.0000 C   0  0  0  0  0  0  0  0  0  0  0  0
    0.0000    0.7000    0.0000 C   0  0  0  0  0  0  0  0  0  0  0  0
    1.2124    0.0000    0.0000 C   0  0  0  0  0  0  0  0  0  0  0  0
  1  2  1  0  0  0  0
  2  3  1  0  0  0  0
  3  4  1  0  0  0  0
  4  5  1  0  0  0  0
  5  6  1  0  0  0  0
  6  1  1  0  0  0  0
  5  7  1  0  0  0  0
  3  8  1  0  0  0  0
  1  9  1  0  0  0  0
  8 10  1  0  0  0  0
  9 10  1  0  0  0  0
 10  7  1  0  0  0  0
  2 11  1  0  0  0  0
 11 12  1  0  0  0  0
 11 13  1  0  0  0  0
 12 14  1  0  0  0  0
 14 15  1  0  0  0  0
 14 16  2  0  0  0  0
 15 17  1  0  0  0  0
 17 18  1  0  0  0  0
 18 19  1  0  0  0  0
 19 20  1  0  0  0  0
 20 21  1  0  0  0  0
 21 22  1  0  0  0  0
 22 17  1  0  0  0  0
M  END
> <Molecule Name>
358

> <CDD Number>
CDD-15956

> <Human_sEH_IC50_uM>
0.18

> <Mouse_sEH_IC50_uM>
0.05

$$$$

SketchEl molfile

 22 21  0  0  0  0  0  0  0  0999 V2000
    9.8870    0.1987    0.0000 C   0  0  0  0  0  0  0  0  0  0  0  0
   11.0995    0.8987    0.0000 C   0  0  0  0  0  0  0  0  0  0  0  0
   12.3119    0.1987    0.0000 C   0  0  0  0  0  0  0  0  0  0  0  0
   13.5244    0.8987    0.0000 C   0  0  0  0  0  0  0  0  0  0  0  0
   14.7368    0.1987    0.0000 C   0  0  0  0  0  0  0  0  0  0  0  0
   15.9492    0.8987    0.0000 C   0  0  0  0  0  0  0  0  0  0  0  0
   17.1617    0.1987    0.0000 C   0  0  0  0  0  0  0  0  0  0  0  0
   18.3741    0.8987    0.0000 C   0  0  0  0  0  0  0  0  0  0  0  0
   19.5865    0.1987    0.0000 N   0  0  0  0  0  0  0  0  0  0  0  0
   20.5765    0.7993    0.0000 C   0  0  0  0  0  0  0  0  0  0  0  0
   21.7889    0.0993    0.0000 N   0  0  0  0  0  0  0  0  0  0  0  0
   20.5765    2.1993    0.0000 O   0  0  0  0  0  0  0  0  0  0  0  0
   22.7789    0.7000    0.0000 C   0  0  0  0  0  0  0  0  0  0  0  0
   23.9913    0.0000    0.0000 C   0  0  0  0  0  0  0  0  0  0  0  0
    8.4870    0.1987    0.0000 C   0  0  0  0  0  0  0  0  0  0  0  0
    7.2746    0.8987    0.0000 C   0  0  0  0  0  0  0  0  0  0  0  0
    6.0622    0.1987    0.0000 C   0  0  0  0  0  0  0  0  0  0  0  0
    4.8497    0.8987    0.0000 C   0  0  0  0  0  0  0  0  0  0  0  0
    3.6373    0.1987    0.0000 C   0  0  0  0  0  0  0  0  0  0  0  0
    2.4249    0.8987    0.0000 C   0  0  0  0  0  0  0  0  0  0  0  0
    1.2124    0.1987    0.0000 C   0  0  0  0  0  0  0  0  0  0  0  0
    0.0000    0.8987    0.0000 C   0  0  0  0  0  0  0  0  0  0  0  0
  1  2  1  0  0  0  0
  2  3  1  0  0  0  0
  3  4  1  0  0  0  0
  4  5  1  0  0  0  0
  5  6  1  0  0  0  0
  6  7  1  0  0  0  0
  7  8  1  0  0  0  0
  8  9  1  0  0  0  0
  9 10  1  0  0  0  0
 10 11  1  0  0  0  0
 10 12  2  0  0  0  0
 11 13  1  0  0  0  0
 13 14  1  0  0  0  0
  1 15  2  0  0  0  0
 15 16  1  0  0  0  0
 16 17  1  0  0  0  0
 17 18  1  0  0  0  0
 18 19  1  0  0  0  0
 19 20  1  0  0  0  0
 20 21  1  0  0  0  0
 21 22  1  0  0  0  0
M  END
> <Molecule Name>
356

> <CDD Number>
CDD-15865

> <Human_sEH_IC50_uM>
500.0

> <Mouse_sEH_IC50_uM>
500.0

$$$$

SketchEl molfile

 18 18  0  0  0  0  0  0  0  0999 V2000
    1.2124    0.7000    0.0000 C   0  0  0  0  0  0  0  0  0  0  0  0
    1.2124    2.1000    0.0000 N   0  0  0  0  0  0  0  0  0  0  0  0
    2.4249    2.8000    0.0000 C   0  0  0  0  0  0  0  0  0  0  0  0
    3.6373    2.1000    0.0000 N   0  0  0  0  0  0  0  0  0  0  0  0
    2.4249    4.2000    0.0000 O   0  0  0  0  0  0  0  0  0  0  0  0
    0.0000    0.0000    0.0000 C   0  0  0  0  0  0  0  0  0  0  0  0
    7.2025    2.0854    0.0000 C   0  0  0  0  0  0  0  0  0  0  0  0
    9.2110    4.0630    0.0000 C   0  0  0  0  0  0  0  0  0  0  0  0
    7.2333    6.0714    0.0000 C   0  0  0  0  0  0  0  0  0  0  0  0
    5.2249    4.0938    0.0000 C   0  0  0  0  0  0  0  0  0  0  0  0
    9.5781    5.3871    0.0000 C   0  0  0  0  0  0  0  0  0  0  0  0
    8.5645    6.4023    0.0000 C   0  0  0  0  0  0  0  0  0  0  0  0
    5.9237    6.4672    0.0000 C   0  0  0  0  0  0  0  0  0  0  0  0
    4.9053    5.4568    0.0000 C   0  0  0  0  0  0  0  0  0  0  0  0
    4.8497    2.8000    0.0000 C   0  0  0  0  0  0  0  0  0  0  0  0
    5.8641    1.7856    0.0000 C   0  0  0  0  0  0  0  0  0  0  0  0
    8.4997    1.6751    0.0000 C   0  0  0  0  0  0  0  0  0  0  0  0
    9.5168    2.6868    0.0000 C   0  0  0  0  0  0  0  0  0  0  0  0
  1  2  1  0  0  0  0
  2  3  1  0  0  0  0
  3  4  1  0  0  0  0
  3  5  2  0  0  0  0
  4 15  1  0  0  0  0
  1  6  1  0  0  0  0
 11 12  1  0  0  0  0
  9 12  1  0  0  0  0
  8 11  1  0  0  0  0
 13 14  1  0  0  0  0
  9 13  1  0  0  0  0
 10 14  1  0  0  0  0
 15 16  1  0  0  0  0
  7 16  1  0  0  0  0
 10 15  1  0  0  0  0
 17 18  1  0  0  0  0
  8 18  1  0  0  0  0
  7 17  1  0  0  0  0
M  END
> <Molecule Name>
355

> <CDD Number>
CDD-15800

> <Human_sEH_IC50_uM>
1.1

> <Mouse_sEH_IC50_uM>
2.6

$$$$

SketchEl molfile

 23 23  0  0  0  0  0  0  0  0999 V2000
    0.0000    0.8987    0.0000 C   0  0  0  0  0  0  0  0  0  0  0  0
    1.2124    0.1987    0.0000 C   0  0  0  0  0  0  0  0  0  0  0  0
    2.4249    0.8987    0.0000 C   0  0  0  0  0  0  0  0  0  0  0  0
    2.4249    2.2987    0.0000 C   0  0  0  0  0  0  0  0  0  0  0  0
    1.2124    2.9987    0.0000 C   0  0  0  0  0  0  0  0  0  0  0  0
    0.0000    2.2987    0.0000 C   0  0  0  0  0  0  0  0  0  0  0  0
    3.6373    0.1987    0.0000 N   0  0  0  0  0  0  0  0  0  0  0  0
    4.6273    0.7993    0.0000 C   0  0  0  0  0  0  0  0  0  0  0  0
    5.8397    0.0993    0.0000 N   0  0  0  0  0  0  0  0  0  0  0  0
    4.6273    2.1993    0.0000 O   0  0  0  0  0  0  0  0  0  0  0  0
    6.8296    0.7000    0.0000 C   0  0  0  0  0  0  0  0  0  0  0  0
    8.0421    0.0000    0.0000 C   0  0  0  0  0  0  0  0  0  0  0  0
    9.2545    0.7000    0.0000 C   0  0  0  0  0  0  0  0  0  0  0  0
   10.4669    0.0000    0.0000 C   0  0  0  0  0  0  0  0  0  0  0  0
   11.6794    0.7000    0.0000 C   0  0  0  0  0  0  0  0  0  0  0  0
   12.8918    0.0000    0.0000 C   0  0  0  0  0  0  0  0  0  0  0  0
   14.1043    0.7000    0.0000 C   0  0  0  0  0  0  0  0  0  0  0  0
   15.3167    0.0000    0.0000 C   0  0  0  0  0  0  0  0  0  0  0  0
   16.5291    0.7000    0.0000 C   0  0  0  0  0  0  0  0  0  0  0  0
   17.7416    0.0000    0.0000 C   0  0  0  0  0  0  0  0  0  0  0  0
   18.9540    0.7000    0.0000 C   0  0  0  0  0  0  0  0  0  0  0  0
   20.1664    0.0000    0.0000 C   0  0  0  0  0  0  0  0  0  0  0  0
   21.3789    0.7000    0.0000 C   0  0  0  0  0  0  0  0  0  0  0  0
  1  2  1  0  0  0  0
  2  3  1  0  0  0  0
  3  4  1  0  0  0  0
  4  5  1  0  0  0  0
  5  6  1  0  0  0  0
  6  1  1  0  0  0  0
  3  7  1  0  0  0  0
  7  8  1  0  0  0  0
  8  9  1  0  0  0  0
  8 10  2  0  0  0  0
  9 11  1  0  0  0  0
 11 12  1  0  0  0  0
 12 13  1  0  0  0  0
 13 14  1  0  0  0  0
 14 15  1  0  0  0  0
 15 16  1  0  0  0  0
 16 17  1  0  0  0  0
 17 18  1  0  0  0  0
 18 19  1  0  0  0  0
 19 20  1  0  0  0  0
 20 21  1  0  0  0  0
 21 22  1  0  0  0  0
 22 23  1  0  0  0  0
M  END
> <Molecule Name>
354

> <CDD Number>
CDD-15933

> <Human_sEH_IC50_uM>
0.1

> <Mouse_sEH_IC50_uM>
0.05

$$$$

SketchEl molfile

 14 14  0  0  0  0  0  0  0  0999 V2000
    0.0000    0.9899    0.0000 C   0  0  0  0  0  0  0  0  0  0  0  0
    0.9899    0.0000    0.0000 C   0  0  0  0  0  0  0  0  0  0  0  0
    2.3899    0.0000    0.0000 C   0  0  0  0  0  0  0  0  0  0  0  0
    3.3799    0.9899    0.0000 C   0  0  0  0  0  0  0  0  0  0  0  0
    3.3799    2.3899    0.0000 C   0  0  0  0  0  0  0  0  0  0  0  0
    2.3899    3.3799    0.0000 C   0  0  0  0  0  0  0  0  0  0  0  0
    0.9899    3.3799    0.0000 C   0  0  0  0  0  0  0  0  0  0  0  0
    0.0000    2.3899    0.0000 C   0  0  0  0  0  0  0  0  0  0  0  0
    4.5923    0.2899    0.0000 N   0  0  0  0  0  0  0  0  0  0  0  0
    5.8048    0.9899    0.0000 C   0  0  0  0  0  0  0  0  0  0  0  0
    7.0172    0.2899    0.0000 N   0  0  0  0  0  0  0  0  0  0  0  0
    5.8048    2.3899    0.0000 O   0  0  0  0  0  0  0  0  0  0  0  0
    8.2296    0.9899    0.0000 C   0  0  0  0  0  0  0  0  0  0  0  0
    9.4421    0.2899    0.0000 C   0  0  0  0  0  0  0  0  0  0  0  0
  1  2  1  0  0  0  0
  2  3  1  0  0  0  0
  3  4  1  0  0  0  0
  4  5  1  0  0  0  0
  5  6  1  0  0  0  0
  6  7  1  0  0  0  0
  7  8  1  0  0  0  0
  8  1  1  0  0  0  0
  4  9  1  0  0  0  0
  9 10  1  0  0  0  0
 10 11  1  0  0  0  0
 10 12  2  0  0  0  0
 11 13  1  0  0  0  0
 13 14  1  0  0  0  0
M  END
> <Molecule Name>
353

> <CDD Number>
CDD-15997

> <Human_sEH_IC50_uM>
11.8

> <Mouse_sEH_IC50_uM>
7.0

$$$$

SketchEl molfile

 16 18  0  0  0  0  0  0  0  0999 V2000
    0.0000    1.9124    0.0000 C   0  0  0  0  0  0  0  0  0  0  0  0
    0.7000    0.7000    0.0000 C   0  0  0  0  0  0  0  0  0  0  0  0
    2.0543    1.0548    0.0000 C   0  0  0  0  0  0  0  0  0  0  0  0
    3.4004    0.7000    0.0000 C   0  0  0  0  0  0  0  0  0  0  0  0
    2.7005    1.9124    0.0000 C   0  0  0  0  0  0  0  0  0  0  0  0
    1.3461    1.5577    0.0000 C   0  0  0  0  0  0  0  0  0  0  0  0
    0.0000    3.3124    0.0000 C   0  0  0  0  0  0  0  0  0  0  0  0
    2.7005    3.3124    0.0000 C   0  0  0  0  0  0  0  0  0  0  0  0
    2.0543    2.4548    0.0000 C   0  0  0  0  0  0  0  0  0  0  0  0
    1.3543    3.6673    0.0000 C   0  0  0  0  0  0  0  0  0  0  0  0
    4.6129    0.0000    0.0000 N   0  0  0  0  0  0  0  0  0  0  0  0
    5.8253    0.7000    0.0000 C   0  0  0  0  0  0  0  0  0  0  0  0
    7.0377    0.0000    0.0000 N   0  0  0  0  0  0  0  0  0  0  0  0
    5.8253    2.1000    0.0000 O   0  0  0  0  0  0  0  0  0  0  0  0
    8.2502    0.7000    0.0000 C   0  0  0  0  0  0  0  0  0  0  0  0
    9.4626    0.0000    0.0000 C   0  0  0  0  0  0  0  0  0  0  0  0
  1  2  1  0  0  0  0
  2  3  1  0  0  0  0
  3  4  1  0  0  0  0
  4  5  1  0  0  0  0
  5  6  1  0  0  0  0
  6  1  1  0  0  0  0
  1  7  1  0  0  0  0
  5  8  1  0  0  0  0
  3  9  1  0  0  0  0
  9 10  1  0  0  0  0
  7 10  1  0  0  0  0
  8 10  1  0  0  0  0
  4 11  1  0  0  0  0
 11 12  1  0  0  0  0
 12 13  1  0  0  0  0
 12 14  2  0  0  0  0
 13 15  1  0  0  0  0
 15 16  1  0  0  0  0
M  END
> <Molecule Name>
352

> <CDD Number>
CDD-15649

> <Human_sEH_IC50_uM>
39.0

> <Mouse_sEH_IC50_uM>
14.4

$$$$

SketchEl molfile

 14 13  0  0  0  0  0  0  0  0999 V2000
    0.8999    0.0000    0.0000 C   0  0  0  0  0  0  0  0  0  0  0  0
    1.3787    1.3156    0.0000 C   0  0  0  0  0  0  0  0  0  0  0  0
    0.0000    1.5587    0.0000 C   0  0  0  0  0  0  0  0  0  0  0  0
    1.3787    2.7156    0.0000 C   0  0  0  0  0  0  0  0  0  0  0  0
    2.5912    0.6156    0.0000 C   0  0  0  0  0  0  0  0  0  0  0  0
    3.8036    1.3156    0.0000 C   0  0  0  0  0  0  0  0  0  0  0  0
    2.9037    2.3880    0.0000 C   0  0  0  0  0  0  0  0  0  0  0  0
    4.7035    2.3880    0.0000 C   0  0  0  0  0  0  0  0  0  0  0  0
    5.0160    0.6156    0.0000 N   0  0  0  0  0  0  0  0  0  0  0  0
    6.2285    1.3156    0.0000 C   0  0  0  0  0  0  0  0  0  0  0  0
    7.4409    0.6156    0.0000 N   0  0  0  0  0  0  0  0  0  0  0  0
    6.2285    2.7156    0.0000 O   0  0  0  0  0  0  0  0  0  0  0  0
    8.4309    1.2162    0.0000 C   0  0  0  0  0  0  0  0  0  0  0  0
    9.6583    0.5428    0.0000 C   0  0  0  0  0  0  0  0  0  0  0  0
  1  2  1  0  0  0  0
  2  3  1  0  0  0  0
  2  4  1  0  0  0  0
  2  5  1  0  0  0  0
  5  6  1  0  0  0  0
  6  7  1  0  0  0  0
  6  8  1  0  0  0  0
  6  9  1  0  0  0  0
  9 10  1  0  0  0  0
 10 11  1  0  0  0  0
 10 12  2  0  0  0  0
 11 13  1  0  0  0  0
 13 14  1  0  0  0  0
M  END
> <Molecule Name>
351

> <CDD Number>
CDD-15803

> <Human_sEH_IC50_uM>
500.0

> <Mouse_sEH_IC50_uM>
330.0

$$$$

SketchEl molfile

  8  7  0  0  0  0  0  0  0  0999 V2000
    1.2124    0.7000    0.0000 C   0  0  0  0  0  0  0  0  0  0  0  0
    2.4249    0.0000    0.0000 O   0  0  0  0  0  0  0  0  0  0  0  0
    1.2124    2.1000    0.0000 C   0  0  0  0  0  0  0  0  0  0  0  0
    0.0000    0.0000    0.0000 C   0  0  0  0  0  0  0  0  0  0  0  0
    0.0000    1.4000    0.0000 C   0  0  0  0  0  0  0  0  0  0  0  0
    3.6373    0.7000    0.0000 C   0  0  0  0  0  0  0  0  0  0  0  0
    4.8497    0.0000    0.0000 N   0  0  0  0  0  0  0  0  0  0  0  0
    3.6373    2.1000    0.0000 O   0  0  0  0  0  0  0  0  0  0  0  0
  1  2  1  0  0  0  0
  1  3  1  0  0  0  0
  1  4  1  0  0  0  0
  1  5  1  0  0  0  0
  2  6  1  0  0  0  0
  6  7  1  0  0  0  0
  6  8  2  0  0  0  0
M  END
> <Molecule Name>
350

> <CDD Number>
CDD-16073

> <Human_sEH_IC50_uM>
500.0

> <Mouse_sEH_IC50_uM>
500.0

$$$$

SketchEl molfile

 16 17  0  0  0  0  0  0  0  0999 V2000
    0.0000    2.5867    0.0000 C   0  0  0  0  0  0  0  0  0  0  0  0
    1.2124    1.8867    0.0000 C   0  0  0  0  0  0  0  0  0  0  0  0
    2.4249    2.5867    0.0000 C   0  0  0  0  0  0  0  0  0  0  0  0
    2.4249    3.9867    0.0000 C   0  0  0  0  0  0  0  0  0  0  0  0
    1.2124    4.6867    0.0000 C   0  0  0  0  0  0  0  0  0  0  0  0
    0.0000    3.9867    0.0000 C   0  0  0  0  0  0  0  0  0  0  0  0
    3.6373    1.8867    0.0000 N   0  0  0  0  0  0  0  0  0  0  0  0
    4.6273    2.4874    0.0000 C   0  0  0  0  0  0  0  0  0  0  0  0
    5.8397    1.7874    0.0000 N   0  0  0  0  0  0  0  0  0  0  0  0
    4.6273    3.8874    0.0000 O   0  0  0  0  0  0  0  0  0  0  0  0
    6.8296    2.3881    0.0000 C   0  0  0  0  0  0  0  0  0  0  0  0
    8.0570    1.7146    0.0000 N   0  0  0  0  0  0  0  0  0  0  0  0
    9.4093    2.0770    0.0000 C   0  0  0  0  0  0  0  0  0  0  0  0
    8.4194    0.3623    0.0000 C   0  0  0  0  0  0  0  0  0  0  0  0
    9.7717    0.0000    0.0000 C   0  0  0  0  0  0  0  0  0  0  0  0
   10.3993    1.0870    0.0000 C   0  0  0  0  0  0  0  0  0  0  0  0
  1  2  1  0  0  0  0
  2  3  1  0  0  0  0
  3  4  1  0  0  0  0
  4  5  1  0  0  0  0
  5  6  1  0  0  0  0
  6  1  1  0  0  0  0
  3  7  1  0  0  0  0
  7  8  1  0  0  0  0
  8  9  1  0  0  0  0
  8 10  2  0  0  0  0
  9 11  1  0  0  0  0
 11 12  1  0  0  0  0
 12 13  1  0  0  0  0
 12 14  1  0  0  0  0
 14 15  1  0  0  0  0
 13 16  1  0  0  0  0
 15 16  1  0  0  0  0
M  END
> <Molecule Name>
349

> <CDD Number>
CDD-15939

> <Human_sEH_IC50_uM>
20.0

> <Mouse_sEH_IC50_uM>
6.1

$$$$

SketchEl molfile

 20 19  0  0  0  0  0  0  0  0999 V2000
    0.8999    0.0000    0.0000 C   0  0  0  0  0  0  0  0  0  0  0  0
    1.3787    1.3156    0.0000 C   0  0  0  0  0  0  0  0  0  0  0  0
    0.0000    1.5587    0.0000 C   0  0  0  0  0  0  0  0  0  0  0  0
    1.3787    2.7156    0.0000 C   0  0  0  0  0  0  0  0  0  0  0  0
    2.5912    0.6156    0.0000 C   0  0  0  0  0  0  0  0  0  0  0  0
    3.8036    1.3156    0.0000 C   0  0  0  0  0  0  0  0  0  0  0  0
    2.9037    2.3880    0.0000 C   0  0  0  0  0  0  0  0  0  0  0  0
    4.7035    2.3880    0.0000 C   0  0  0  0  0  0  0  0  0  0  0  0
    5.0160    0.6156    0.0000 N   0  0  0  0  0  0  0  0  0  0  0  0
    6.2285    1.3156    0.0000 C   0  0  0  0  0  0  0  0  0  0  0  0
    7.4409    0.6156    0.0000 N   0  0  0  0  0  0  0  0  0  0  0  0
    6.2285    2.7156    0.0000 O   0  0  0  0  0  0  0  0  0  0  0  0
    8.4309    1.2162    0.0000 C   0  0  0  0  0  0  0  0  0  0  0  0
    9.6433    0.5162    0.0000 C   0  0  0  0  0  0  0  0  0  0  0  0
   10.8557    1.2162    0.0000 C   0  0  0  0  0  0  0  0  0  0  0  0
    7.4409    2.2062    0.0000 C   0  0  0  0  0  0  0  0  0  0  0  0
    9.1309    2.4287    0.0000 C   0  0  0  0  0  0  0  0  0  0  0  0
   12.0682    1.9162    0.0000 C   0  0  0  0  0  0  0  0  0  0  0  0
   10.8557    2.6162    0.0000 C   0  0  0  0  0  0  0  0  0  0  0  0
   12.2080    0.8539    0.0000 C   0  0  0  0  0  0  0  0  0  0  0  0
  1  2  1  0  0  0  0
  2  3  1  0  0  0  0
  2  4  1  0  0  0  0
  2  5  1  0  0  0  0
  5  6  1  0  0  0  0
  6  7  1  0  0  0  0
  6  8  1  0  0  0  0
  6  9  1  0  0  0  0
  9 10  1  0  0  0  0
 10 11  1  0  0  0  0
 10 12  2  0  0  0  0
 11 13  1  0  0  0  0
 13 14  1  0  0  0  0
 14 15  1  0  0  0  0
 13 16  1  0  0  0  0
 13 17  1  0  0  0  0
 15 18  1  0  0  0  0
 15 19  1  0  0  0  0
 15 20  1  0  0  0  0
M  END
> <Molecule Name>
348

> <CDD Number>
CDD-15804

> <Human_sEH_IC50_uM>
500.0

> <Mouse_sEH_IC50_uM>
500.0

$$$$

SketchEl molfile

 18 18  0  0  0  0  0  0  0  0999 V2000
    0.0000    0.8987    0.0000 C   0  0  0  0  0  0  0  0  0  0  0  0
    1.2124    0.1987    0.0000 C   0  0  0  0  0  0  0  0  0  0  0  0
    2.4249    0.8987    0.0000 C   0  0  0  0  0  0  0  0  0  0  0  0
    2.4249    2.2987    0.0000 C   0  0  0  0  0  0  0  0  0  0  0  0
    1.2124    2.9987    0.0000 C   0  0  0  0  0  0  0  0  0  0  0  0
    0.0000    2.2987    0.0000 C   0  0  0  0  0  0  0  0  0  0  0  0
    3.6373    0.1987    0.0000 N   0  0  0  0  0  0  0  0  0  0  0  0
    4.6273    0.7993    0.0000 C   0  0  0  0  0  0  0  0  0  0  0  0
    5.8397    0.0993    0.0000 N   0  0  0  0  0  0  0  0  0  0  0  0
    4.6273    2.1993    0.0000 O   0  0  0  0  0  0  0  0  0  0  0  0
    6.8296    0.7000    0.0000 C   0  0  0  0  0  0  0  0  0  0  0  0
    8.0421    0.0000    0.0000 C   0  0  0  0  0  0  0  0  0  0  0  0
    9.2545    0.7000    0.0000 C   0  0  0  0  0  0  0  0  0  0  0  0
    9.2545    2.1000    0.0000 C   0  0  0  0  0  0  0  0  0  0  0  0
   10.4669    1.4000    0.0000 C   0  0  0  0  0  0  0  0  0  0  0  0
   10.6068    0.3377    0.0000 C   0  0  0  0  0  0  0  0  0  0  0  0
    6.4673    2.0523    0.0000 C   0  0  0  0  0  0  0  0  0  0  0  0
    7.5296    1.9124    0.0000 C   0  0  0  0  0  0  0  0  0  0  0  0
  1  2  1  0  0  0  0
  2  3  1  0  0  0  0
  3  4  1  0  0  0  0
  4  5  1  0  0  0  0
  5  6  1  0  0  0  0
  6  1  1  0  0  0  0
  3  7  1  0  0  0  0
  7  8  1  0  0  0  0
  8  9  1  0  0  0  0
  8 10  2  0  0  0  0
  9 11  1  0  0  0  0
 11 12  1  0  0  0  0
 12 13  1  0  0  0  0
 13 14  1  0  0  0  0
 13 15  1  0  0  0  0
 13 16  1  0  0  0  0
 11 17  1  0  0  0  0
 11 18  1  0  0  0  0
M  END
> <Molecule Name>
347

> <CDD Number>
CDD-15905

> <Human_sEH_IC50_uM>
3.1

> <Mouse_sEH_IC50_uM>
0.07

$$$$

SketchEl molfile

 20 19  0  0  0  0  0  0  0  0999 V2000
    1.2124    0.1721    0.0000 C   0  0  0  0  0  0  0  0  0  0  0  0
    2.4249    0.8721    0.0000 C   0  0  0  0  0  0  0  0  0  0  0  0
    3.6373    0.1721    0.0000 C   0  0  0  0  0  0  0  0  0  0  0  0
    4.8497    0.8721    0.0000 C   0  0  0  0  0  0  0  0  0  0  0  0
    6.0622    0.1721    0.0000 C   0  0  0  0  0  0  0  0  0  0  0  0
    7.2746    0.8721    0.0000 C   0  0  0  0  0  0  0  0  0  0  0  0
    8.4870    0.1721    0.0000 C   0  0  0  0  0  0  0  0  0  0  0  0
    9.6995    0.8721    0.0000 C   0  0  0  0  0  0  0  0  0  0  0  0
   10.9119    0.1721    0.0000 C   0  0  0  0  0  0  0  0  0  0  0  0
   12.1244    0.8721    0.0000 C   0  0  0  0  0  0  0  0  0  0  0  0
   13.3368    0.1721    0.0000 C   0  0  0  0  0  0  0  0  0  0  0  0
   14.5492    0.8721    0.0000 C   0  0  0  0  0  0  0  0  0  0  0  0
   15.7617    0.1721    0.0000 N   0  0  0  0  0  0  0  0  0  0  0  0
   16.7516    0.7728    0.0000 C   0  0  0  0  0  0  0  0  0  0  0  0
   17.9640    0.0728    0.0000 N   0  0  0  0  0  0  0  0  0  0  0  0
   16.7516    2.1728    0.0000 O   0  0  0  0  0  0  0  0  0  0  0  0
   18.9540    0.6734    0.0000 C   0  0  0  0  0  0  0  0  0  0  0  0
   20.1814    0.0000    0.0000 C   0  0  0  0  0  0  0  0  0  0  0  0
    0.0000    0.8721    0.0000 C   0  0  0  0  0  0  0  0  0  0  0  0
   21.3938    0.7000    0.0000 Cl  0  0  0  0  0  0  0  0  0  0  0  0
  1  2  1  0  0  0  0
  2  3  1  0  0  0  0
  3  4  1  0  0  0  0
  4  5  1  0  0  0  0
  5  6  1  0  0  0  0
  6  7  1  0  0  0  0
  7  8  1  0  0  0  0
  8  9  1  0  0  0  0
  9 10  1  0  0  0  0
 10 11  1  0  0  0  0
 11 12  1  0  0  0  0
 12 13  1  0  0  0  0
 13 14  1  0  0  0  0
 14 15  1  0  0  0  0
 14 16  2  0  0  0  0
 15 17  1  0  0  0  0
 17 18  1  0  0  0  0
  1 19  1  0  0  0  0
 18 20  1  0  0  0  0
M  END
> <Molecule Name>
346

> <CDD Number>
CDD-15856

> <Human_sEH_IC50_uM>
500.0

> <Mouse_sEH_IC50_uM>
70.0

$$$$

SketchEl molfile

 17 16  0  0  0  0  0  0  0  0999 V2000
    0.0000    0.8987    0.0000 C   0  0  0  0  0  0  0  0  0  0  0  0
    1.2124    0.1987    0.0000 C   0  0  0  0  0  0  0  0  0  0  0  0
    2.4249    0.8987    0.0000 C   0  0  0  0  0  0  0  0  0  0  0  0
    2.4249    2.2987    0.0000 C   0  0  0  0  0  0  0  0  0  0  0  0
    1.2124    2.9987    0.0000 C   0  0  0  0  0  0  0  0  0  0  0  0
    0.0000    2.2987    0.0000 C   0  0  0  0  0  0  0  0  0  0  0  0
    3.6373    0.1987    0.0000 N   0  0  0  0  0  0  0  0  0  0  0  0
    4.6273    0.7993    0.0000 C   0  0  0  0  0  0  0  0  0  0  0  0
    5.8397    0.0993    0.0000 N   0  0  0  0  0  0  0  0  0  0  0  0
    4.6273    2.1993    0.0000 O   0  0  0  0  0  0  0  0  0  0  0  0
    6.8296    0.7000    0.0000 C   0  0  0  0  0  0  0  0  0  0  0  0
    8.0421    0.0000    0.0000 C   0  0  0  0  0  0  0  0  0  0  0  0
    9.2545    0.7000    0.0000 N   0  3  0  0  0  0  0  0  0  0  0  0
    9.2545    2.1000    0.0000 C   0  0  0  0  0  0  0  0  0  0  0  0
   10.4669    1.4000    0.0000 C   0  0  0  0  0  0  0  0  0  0  0  0
   10.4669    0.0000    0.0000 C   0  0  0  0  0  0  0  0  0  0  0  0
    8.7421    1.2124    0.0000 I   0  5  0  0  0  0  0  0  0  0  0  0
  1  2  1  0  0  0  0
  2  3  1  0  0  0  0
  3  4  1  0  0  0  0
  4  5  1  0  0  0  0
  5  6  1  0  0  0  0
  6  1  1  0  0  0  0
  3  7  1  0  0  0  0
  7  8  1  0  0  0  0
  8  9  1  0  0  0  0
  8 10  2  0  0  0  0
  9 11  1  0  0  0  0
 11 12  1  0  0  0  0
 12 13  1  0  0  0  0
 13 14  1  0  0  0  0
 13 15  1  0  0  0  0
 13 16  1  0  0  0  0
M  CHG  2  13   1  17  -1
M  END
> <Molecule Name>
345

> <CDD Number>
CDD-15907

> <Human_sEH_IC50_uM>
500.0

> <Mouse_sEH_IC50_uM>
72.0

$$$$

SketchEl molfile

 17 17  0  0  0  0  0  0  0  0999 V2000
    0.0000    0.8987    0.0000 C   0  0  0  0  0  0  0  0  0  0  0  0
    1.2124    0.1987    0.0000 C   0  0  0  0  0  0  0  0  0  0  0  0
    2.4249    0.8987    0.0000 C   0  0  0  0  0  0  0  0  0  0  0  0
    2.4249    2.2987    0.0000 C   0  0  0  0  0  0  0  0  0  0  0  0
    1.2124    2.9987    0.0000 C   0  0  0  0  0  0  0  0  0  0  0  0
    0.0000    2.2987    0.0000 C   0  0  0  0  0  0  0  0  0  0  0  0
    3.6373    0.1987    0.0000 N   0  0  0  0  0  0  0  0  0  0  0  0
    4.6273    0.7993    0.0000 C   0  0  0  0  0  0  0  0  0  0  0  0
    5.8397    0.0993    0.0000 N   0  0  0  0  0  0  0  0  0  0  0  0
    4.6273    2.1993    0.0000 O   0  0  0  0  0  0  0  0  0  0  0  0
    6.8296    0.7000    0.0000 C   0  0  0  0  0  0  0  0  0  0  0  0
    8.0421    0.0000    0.0000 C   0  0  0  0  0  0  0  0  0  0  0  0
    9.2545    0.7000    0.0000 C   0  0  0  0  0  0  0  0  0  0  0  0
   10.4669    0.0000    0.0000 C   0  0  0  0  0  0  0  0  0  0  0  0
   11.6794    0.7000    0.0000 C   0  0  0  0  0  0  0  0  0  0  0  0
   12.8918    0.0000    0.0000 C   0  0  0  0  0  0  0  0  0  0  0  0
   14.1043    0.7000    0.0000 O   0  0  0  0  0  0  0  0  0  0  0  0
  1  2  1  0  0  0  0
  2  3  1  0  0  0  0
  3  4  1  0  0  0  0
  4  5  1  0  0  0  0
  5  6  1  0  0  0  0
  6  1  1  0  0  0  0
  3  7  1  0  0  0  0
  7  8  1  0  0  0  0
  8  9  1  0  0  0  0
  8 10  2  0  0  0  0
  9 11  1  0  0  0  0
 11 12  1  0  0  0  0
 12 13  1  0  0  0  0
 13 14  1  0  0  0  0
 14 15  1  0  0  0  0
 15 16  1  0  0  0  0
 16 17  1  0  0  0  0
M  END
> <Molecule Name>
344

> <CDD Number>
CDD-15919

> <Human_sEH_IC50_uM>
2.5

> <Mouse_sEH_IC50_uM>
0.05

$$$$

SketchEl molfile

 21 22  0  0  0  0  0  0  0  0999 V2000
    7.2746    0.7000    0.0000 C   0  0  0  0  0  0  0  0  0  0  0  0
    6.0622    0.0000    0.0000 N   0  0  0  0  0  0  0  0  0  0  0  0
    4.8497    0.7000    0.0000 C   0  0  0  0  0  0  0  0  0  0  0  0
    3.6373    0.0000    0.0000 N   0  0  0  0  0  0  0  0  0  0  0  0
    4.8497    2.1000    0.0000 O   0  0  0  0  0  0  0  0  0  0  0  0
    2.4249    0.7000    0.0000 C   0  0  0  0  0  0  0  0  0  0  0  0
    2.4249    2.1000    0.0000 C   0  0  0  0  0  0  0  0  0  0  0  0
    1.2124    2.8000    0.0000 C   0  0  0  0  0  0  0  0  0  0  0  0
    0.0000    2.1000    0.0000 C   0  0  0  0  0  0  0  0  0  0  0  0
    0.0000    0.7000    0.0000 C   0  0  0  0  0  0  0  0  0  0  0  0
    1.2124    0.0000    0.0000 C   0  0  0  0  0  0  0  0  0  0  0  0
    8.4870    0.0000    0.0000 C   0  0  0  0  0  0  0  0  0  0  0  0
    9.6995    0.7000    0.0000 C   0  0  0  0  0  0  0  0  0  0  0  0
    9.6995    2.1000    0.0000 C   0  0  0  0  0  0  0  0  0  0  0  0
    8.4870    2.8000    0.0000 C   0  0  0  0  0  0  0  0  0  0  0  0
    7.2746    2.1000    0.0000 C   0  0  0  0  0  0  0  0  0  0  0  0
   10.9119    2.8000    0.0000 O   0  0  0  0  0  0  0  0  0  0  0  0
   12.1244    2.1000    0.0000 C   0  0  0  0  0  0  0  0  0  0  0  0
   13.4767    2.4623    0.0000 F   0  0  0  0  0  0  0  0  0  0  0  0
   13.3368    1.4000    0.0000 F   0  0  0  0  0  0  0  0  0  0  0  0
   12.1244    0.7000    0.0000 F   0  0  0  0  0  0  0  0  0  0  0  0
  1  2  1  0  0  0  0
  2  3  1  0  0  0  0
  3  4  1  0  0  0  0
  3  5  2  0  0  0  0
  4  6  1  0  0  0  0
  6  7  1  0  0  0  0
  7  8  1  0  0  0  0
  8  9  1  0  0  0  0
  9 10  1  0  0  0  0
 10 11  1  0  0  0  0
 11  6  1  0  0  0  0
  1 12  2  0  0  0  0
 12 13  1  0  0  0  0
 13 14  2  0  0  0  0
 14 15  1  0  0  0  0
 15 16  2  0  0  0  0
 16  1  1  0  0  0  0
 14 17  1  0  0  0  0
 17 18  1  0  0  0  0
 18 19  1  0  0  0  0
 18 20  1  0  0  0  0
 18 21  1  0  0  0  0
M  END
> <Molecule Name>
343

> <CDD Number>
CDD-15986

> <Human_sEH_IC50_uM>
0.1

> <Mouse_sEH_IC50_uM>
0.05

$$$$

SketchEl molfile

 12 11  0  0  0  0  0  0  0  0999 V2000
    3.6373    0.7993    0.0000 C   0  0  0  0  0  0  0  0  0  0  0  0
    4.8497    0.0993    0.0000 C   0  0  0  0  0  0  0  0  0  0  0  0
    6.0622    0.7993    0.0000 C   0  0  0  0  0  0  0  0  0  0  0  0
    7.2746    0.0993    0.0000 N   0  0  0  0  0  0  0  0  0  0  0  0
    8.4870    0.7993    0.0000 C   0  0  0  0  0  0  0  0  0  0  0  0
    9.6995    0.0993    0.0000 N   0  0  0  0  0  0  0  0  0  0  0  0
    8.4870    2.1993    0.0000 O   0  0  0  0  0  0  0  0  0  0  0  0
    2.4249    0.0993    0.0000 C   0  0  0  0  0  0  0  0  0  0  0  0
    1.2124    0.7993    0.0000 C   0  0  0  0  0  0  0  0  0  0  0  0
    0.0000    0.0993    0.0000 C   0  0  0  0  0  0  0  0  0  0  0  0
   10.6894    0.7000    0.0000 O   0  0  0  0  0  0  0  0  0  0  0  0
   11.9019    0.0000    0.0000 C   0  0  0  0  0  0  0  0  0  0  0  0
  1  2  1  0  0  0  0
  2  3  1  0  0  0  0
  3  4  1  0  0  0  0
  4  5  1  0  0  0  0
  5  6  1  0  0  0  0
  5  7  2  0  0  0  0
  1  8  1  0  0  0  0
  8  9  1  0  0  0  0
  9 10  1  0  0  0  0
  6 11  1  0  0  0  0
 11 12  1  0  0  0  0
M  END
> <Molecule Name>
342

> <CDD Number>
CDD-15808

> <Human_sEH_IC50_uM>
42.0

> <Mouse_sEH_IC50_uM>
13.5

$$$$

SketchEl molfile

 20 21  0  0  0  0  0  0  0  0999 V2000
    7.2746    4.2000    0.0000 C   0  0  0  0  0  0  0  0  0  0  0  0
    6.0622    3.5000    0.0000 N   0  0  0  0  0  0  0  0  0  0  0  0
    4.8497    4.2000    0.0000 C   0  0  0  0  0  0  0  0  0  0  0  0
    3.6373    3.5000    0.0000 N   0  0  0  0  0  0  0  0  0  0  0  0
    4.8497    5.6000    0.0000 O   0  0  0  0  0  0  0  0  0  0  0  0
    2.4249    4.2000    0.0000 C   0  0  0  0  0  0  0  0  0  0  0  0
    2.4249    5.6000    0.0000 C   0  0  0  0  0  0  0  0  0  0  0  0
    1.2124    6.3000    0.0000 C   0  0  0  0  0  0  0  0  0  0  0  0
    0.0000    5.6000    0.0000 C   0  0  0  0  0  0  0  0  0  0  0  0
    0.0000    4.2000    0.0000 C   0  0  0  0  0  0  0  0  0  0  0  0
    1.2124    3.5000    0.0000 C   0  0  0  0  0  0  0  0  0  0  0  0
    8.4870    3.5000    0.0000 C   0  0  0  0  0  0  0  0  0  0  0  0
    8.4870    2.1000    0.0000 C   0  0  0  0  0  0  0  0  0  0  0  0
    9.6995    1.4000    0.0000 C   0  0  0  0  0  0  0  0  0  0  0  0
   10.9119    2.1000    0.0000 C   0  0  0  0  0  0  0  0  0  0  0  0
   10.9119    3.5000    0.0000 C   0  0  0  0  0  0  0  0  0  0  0  0
    9.6995    4.2000    0.0000 C   0  0  0  0  0  0  0  0  0  0  0  0
   12.1244    1.4000    0.0000 N   0  3  0  0  0  0  0  0  0  0  0  0
   12.1244    0.0000    0.0000 O   0  0  0  0  0  0  0  0  0  0  0  0
   13.3368    2.1000    0.0000 O   0  5  0  0  0  0  0  0  0  0  0  0
  1  2  1  0  0  0  0
  2  3  1  0  0  0  0
  3  4  1  0  0  0  0
  3  5  2  0  0  0  0
  4  6  1  0  0  0  0
  6  7  1  0  0  0  0
  7  8  1  0  0  0  0
  8  9  1  0  0  0  0
  9 10  1  0  0  0  0
 10 11  1  0  0  0  0
 11  6  1  0  0  0  0
  1 12  1  0  0  0  0
 12 13  2  0  0  0  0
 13 14  1  0  0  0  0
 14 15  2  0  0  0  0
 15 16  1  0  0  0  0
 16 17  2  0  0  0  0
 17 12  1  0  0  0  0
 15 18  1  0  0  0  0
 18 19  2  0  0  0  0
 18 20  1  0  0  0  0
M  CHG  2  18   1  20  -1
M  END
> <Molecule Name>
341

> <CDD Number>
CDD-15987

> <Human_sEH_IC50_uM>
4.3

> <Mouse_sEH_IC50_uM>
2.3

$$$$

SketchEl molfile

 21 23  0  0  0  0  0  0  0  0999 V2000
    3.6373    4.0124    0.0000 C   0  0  0  0  0  0  0  0  0  0  0  0
    3.6373    2.6124    0.0000 C   0  0  0  0  0  0  0  0  0  0  0  0
    4.8497    1.9124    0.0000 C   0  0  0  0  0  0  0  0  0  0  0  0
    6.0622    2.6124    0.0000 C   0  0  0  0  0  0  0  0  0  0  0  0
    6.0622    4.0124    0.0000 C   0  0  0  0  0  0  0  0  0  0  0  0
    4.8497    4.7124    0.0000 C   0  0  0  0  0  0  0  0  0  0  0  0
    2.4249    4.7124    0.0000 O   0  0  0  0  0  0  0  0  0  0  0  0
    1.2124    4.0124    0.0000 C   0  0  0  0  0  0  0  0  0  0  0  0
    0.0000    4.7124    0.0000 N   0  0  0  0  0  0  0  0  0  0  0  0
    1.2124    2.6124    0.0000 O   0  0  0  0  0  0  0  0  0  0  0  0
    0.0000    6.1124    0.0000 C   0  0  0  0  0  0  0  0  0  0  0  0
    7.4622    4.0124    0.0000 C   0  0  0  0  0  0  0  0  0  0  0  0
    6.7622    1.4000    0.0000 N   0  0  0  0  0  0  0  0  0  0  0  0
    7.4622    2.6124    0.0000 C   0  0  0  0  0  0  0  0  0  0  0  0
    6.7622    0.0000    0.0000 C   0  0  0  0  0  0  0  0  0  0  0  0
    8.8622    4.0124    0.0000 C   0  0  0  0  0  0  0  0  0  0  0  0
    8.8622    2.6124    0.0000 C   0  0  0  0  0  0  0  0  0  0  0  0
    8.1622    1.4000    0.0000 N   0  0  0  0  0  0  0  0  0  0  0  0
    8.1622    0.0000    0.0000 C   0  0  0  0  0  0  0  0  0  0  0  0
    7.4622    5.4124    0.0000 C   0  0  0  0  0  0  0  0  0  0  0  0
    7.4622    1.2124    0.0000 C   0  0  0  0  0  0  0  0  0  0  0  0
  1  2  2  0  0  0  0
  2  3  1  0  0  0  0
  3  4  2  0  0  0  0
  4  5  1  0  0  0  0
  5  6  2  0  0  0  0
  6  1  1  0  0  0  0
  1  7  1  0  0  0  0
  7  8  1  0  0  0  0
  8  9  1  0  0  0  0
  8 10  2  0  0  0  0
  9 11  1  0  0  0  0
  5 12  1  0  0  0  0
  4 13  1  0  0  0  0
 12 14  1  0  0  0  0
 14 13  1  0  0  0  0
 13 15  1  0  0  0  0
 12 16  1  0  0  0  0
 16 17  1  0  0  0  0
 14 18  1  0  0  0  0
 17 18  1  0  0  0  0
 18 19  1  0  0  0  0
 12 20  1  1  0  0  0
 14 21  1  1  0  0  0
M  END
> <Molecule Name>
340

> <CDD Number>
CDD-16080

> <Human_sEH_IC50_uM>
500.0

> <Mouse_sEH_IC50_uM>
500.0

$$$$

SketchEl molfile

 16 15  0  0  0  0  0  0  0  0999 V2000
    0.0000    2.1000    0.0000 C   0  0  0  0  0  0  0  0  0  0  0  0
    1.2124    2.8000    0.0000 C   0  0  0  0  0  0  0  0  0  0  0  0
    2.4249    2.1000    0.0000 N   0  0  0  0  0  0  0  0  0  0  0  0
    2.4249    0.7000    0.0000 C   0  0  0  0  0  0  0  0  0  0  0  0
    1.2124    0.0000    0.0000 C   0  0  0  0  0  0  0  0  0  0  0  0
    3.6373    2.8000    0.0000 C   0  0  0  0  0  0  0  0  0  0  0  0
    4.8497    2.1000    0.0000 S   0  0  0  0  0  0  0  0  0  0  0  0
    3.6373    4.2000    0.0000 S   0  0  0  0  0  0  0  0  0  0  0  0
    6.0622    2.8000    0.0000 S   0  0  0  0  0  0  0  0  0  0  0  0
    7.2746    2.1000    0.0000 C   0  0  0  0  0  0  0  0  0  0  0  0
    8.4870    2.8000    0.0000 N   0  0  0  0  0  0  0  0  0  0  0  0
    7.2746    0.7000    0.0000 S   0  0  0  0  0  0  0  0  0  0  0  0
    8.4870    4.2000    0.0000 C   0  0  0  0  0  0  0  0  0  0  0  0
    9.4770    5.1899    0.0000 C   0  0  0  0  0  0  0  0  0  0  0  0
    9.8393    2.4377    0.0000 C   0  0  0  0  0  0  0  0  0  0  0  0
   10.8293    3.4276    0.0000 C   0  0  0  0  0  0  0  0  0  0  0  0
  1  2  1  0  0  0  0
  2  3  1  0  0  0  0
  3  4  1  0  0  0  0
  4  5  1  0  0  0  0
  3  6  1  0  0  0  0
  6  7  1  0  0  0  0
  6  8  2  0  0  0  0
  7  9  1  0  0  0  0
  9 10  1  0  0  0  0
 10 11  1  0  0  0  0
 10 12  2  0  0  0  0
 11 13  1  0  0  0  0
 13 14  1  0  0  0  0
 11 15  1  0  0  0  0
 15 16  1  0  0  0  0
M  END
> <Molecule Name>
339

> <CDD Number>
CDD-219

> <Human_sEH_IC50_uM>
103.0

> <Mouse_sEH_IC50_uM>
93.0

$$$$

SketchEl molfile

 19 21  0  0  0  0  0  0  0  0999 V2000
    0.0000    5.4322    0.0000 C   0  0  0  0  0  0  0  0  0  0  0  0
    0.0000    4.0322    0.0000 C   0  0  0  0  0  0  0  0  0  0  0  0
    1.2124    3.3322    0.0000 C   0  0  0  0  0  0  0  0  0  0  0  0
    2.4249    4.0322    0.0000 C   0  0  0  0  0  0  0  0  0  0  0  0
    2.4249    5.4322    0.0000 C   0  0  0  0  0  0  0  0  0  0  0  0
    1.2124    6.1322    0.0000 C   0  0  0  0  0  0  0  0  0  0  0  0
    3.6373    3.3322    0.0000 C   0  0  0  0  0  0  0  0  0  0  0  0
    2.6474    2.3422    0.0000 C   0  0  0  0  0  0  0  0  0  0  0  0
    1.2951    2.7046    0.0000 C   0  0  0  0  0  0  0  0  0  0  0  0
    0.3051    1.7146    0.0000 C   0  0  0  0  0  0  0  0  0  0  0  0
    0.6675    0.3623    0.0000 C   0  0  0  0  0  0  0  0  0  0  0  0
    2.0198    0.0000    0.0000 C   0  0  0  0  0  0  0  0  0  0  0  0
    3.0097    0.9899    0.0000 C   0  0  0  0  0  0  0  0  0  0  0  0
    4.6273    2.3422    0.0000 N   0  0  0  0  0  0  0  0  0  0  0  0
    5.8397    3.0422    0.0000 C   0  0  0  0  0  0  0  0  0  0  0  0
    5.4773    4.3945    0.0000 N   0  0  0  0  0  0  0  0  0  0  0  0
    3.9997    4.6845    0.0000 C   0  0  0  0  0  0  0  0  0  0  0  0
    3.2997    5.8969    0.0000 O   0  0  0  0  0  0  0  0  0  0  0  0
    7.1920    2.6799    0.0000 O   0  0  0  0  0  0  0  0  0  0  0  0
  1  2  2  0  0  0  0
  2  3  1  0  0  0  0
  3  4  2  0  0  0  0
  4  5  1  0  0  0  0
  5  6  2  0  0  0  0
  6  1  1  0  0  0  0
  4  7  1  0  0  0  0
  7  8  1  0  0  0  0
  8  9  2  0  0  0  0
  9 10  1  0  0  0  0
 10 11  2  0  0  0  0
 11 12  1  0  0  0  0
 12 13  2  0  0  0  0
 13  8  1  0  0  0  0
  7 14  1  0  0  0  0
 14 15  1  0  0  0  0
 15 16  1  0  0  0  0
  7 17  1  0  0  0  0
 16 17  1  0  0  0  0
 17 18  2  0  0  0  0
 15 19  2  0  0  0  0
M  END
> <Molecule Name>
338

> <CDD Number>
CDD-14848

> <Human_sEH_IC50_uM>
500.0

> <Mouse_sEH_IC50_uM>
500.0

$$$$

SketchEl molfile

 20 20  0  0  0  0  0  0  0  0999 V2000
    2.4249    3.5000    0.0000 C   0  0  0  0  0  0  0  0  0  0  0  0
    2.4249    2.1000    0.0000 C   0  0  0  0  0  0  0  0  0  0  0  0
    3.6373    1.4000    0.0000 C   0  0  0  0  0  0  0  0  0  0  0  0
    4.8497    2.1000    0.0000 C   0  0  0  0  0  0  0  0  0  0  0  0
    4.8497    3.5000    0.0000 C   0  0  0  0  0  0  0  0  0  0  0  0
    3.6373    4.2000    0.0000 C   0  0  0  0  0  0  0  0  0  0  0  0
    1.2124    4.2000    0.0000 N   0  3  0  0  0  0  0  0  0  0  0  0
    1.2124    5.6000    0.0000 O   0  0  0  0  0  0  0  0  0  0  0  0
    0.0000    3.5000    0.0000 O   0  5  0  0  0  0  0  0  0  0  0  0
    6.0622    1.4000    0.0000 C   0  0  0  0  0  0  0  0  0  0  0  0
    7.2746    2.1000    0.0000 C   0  0  0  0  0  0  0  0  0  0  0  0
    6.0622    0.0000    0.0000 O   0  0  0  0  0  0  0  0  0  0  0  0
    8.4870    1.4000    0.0000 N   0  0  0  0  0  0  0  0  0  0  0  0
    7.2746    3.5000    0.0000 C   0  0  0  0  0  0  0  0  0  0  0  0
    6.0622    4.2000    0.0000 O   0  0  0  0  0  0  0  0  0  0  0  0
    9.6995    2.1000    0.0000 C   0  0  0  0  0  0  0  0  0  0  0  0
   10.9119    1.4000    0.0000 C   0  0  0  0  0  0  0  0  0  0  0  0
    9.6995    3.5000    0.0000 O   0  0  0  0  0  0  0  0  0  0  0  0
   12.1244    2.1000    0.0000 Cl  0  0  0  0  0  0  0  0  0  0  0  0
   10.9119    0.0000    0.0000 Cl  0  0  0  0  0  0  0  0  0  0  0  0
  1  2  2  0  0  0  0
  2  3  1  0  0  0  0
  3  4  2  0  0  0  0
  4  5  1  0  0  0  0
  5  6  2  0  0  0  0
  6  1  1  0  0  0  0
  1  7  1  0  0  0  0
  4 10  1  0  0  0  0
 10 11  1  0  0  0  0
 10 12  1  0  0  0  0
 11 13  1  0  0  0  0
 11 14  1  0  0  0  0
 14 15  1  0  0  0  0
 13 16  1  0  0  0  0
 16 17  1  0  0  0  0
 16 18  2  0  0  0  0
 17 19  1  0  0  0  0
 17 20  1  0  0  0  0
  7  8  2  0  0  0  0
  7  9  1  0  0  0  0
M  CHG  2   7   1   9  -1
M  END
> <Molecule Name>
337

> <CDD Number>
CDD-1079

> <Human_sEH_IC50_uM>
500.0

> <Mouse_sEH_IC50_uM>
500.0

$$$$

SketchEl molfile

 23 25  0  0  0  0  0  0  0  0999 V2000
    4.4192    3.4293    0.0000 C   0  0  0  0  0  0  0  0  0  0  0  0
    4.0569    2.0770    0.0000 C   0  0  0  0  0  0  0  0  0  0  0  0
    4.8882    0.9506    0.0000 N   0  0  0  0  0  0  0  0  0  0  0  0
    6.2873    0.8982    0.0000 C   0  0  0  0  0  0  0  0  0  0  0  0
    7.2005    1.9594    0.0000 C   0  0  0  0  0  0  0  0  0  0  0  0
    6.9402    3.3350    0.0000 N   0  0  0  0  0  0  0  0  0  0  0  0
    5.7024    3.9891    0.0000 C   0  0  0  0  0  0  0  0  0  0  0  0
    8.1526    4.0350    0.0000 C   0  0  0  0  0  0  0  0  0  0  0  0
    8.1526    5.4350    0.0000 F   0  0  0  0  0  0  0  0  0  0  0  0
    9.3651    4.7350    0.0000 F   0  0  0  0  0  0  0  0  0  0  0  0
    9.5049    3.6726    0.0000 F   0  0  0  0  0  0  0  0  0  0  0  0
    8.5528    1.5970    0.0000 O   0  0  0  0  0  0  0  0  0  0  0  0
    5.7024    5.3891    0.0000 C   0  0  0  0  0  0  0  0  0  0  0  0
    4.4900    6.0891    0.0000 C   0  0  0  0  0  0  0  0  0  0  0  0
    3.2776    5.3891    0.0000 C   0  0  0  0  0  0  0  0  0  0  0  0
    3.2776    3.9891    0.0000 C   0  0  0  0  0  0  0  0  0  0  0  0
    2.0651    6.0891    0.0000 Cl  0  0  0  0  0  0  0  0  0  0  0  0
    2.7046    1.7146    0.0000 C   0  0  0  0  0  0  0  0  0  0  0  0
    1.7146    2.7046    0.0000 C   0  0  0  0  0  0  0  0  0  0  0  0
    0.3623    2.3422    0.0000 C   0  0  0  0  0  0  0  0  0  0  0  0
    0.0000    0.9899    0.0000 C   0  0  0  0  0  0  0  0  0  0  0  0
    0.9899    0.0000    0.0000 C   0  0  0  0  0  0  0  0  0  0  0  0
    2.3422    0.3623    0.0000 C   0  0  0  0  0  0  0  0  0  0  0  0
  1  2  1  0  0  0  0
  2  3  2  0  0  0  0
  3  4  1  0  0  0  0
  4  5  1  0  0  0  0
  5  6  1  0  0  0  0
  6  7  1  0  0  0  0
  7  1  1  0  0  0  0
  6  8  1  0  0  0  0
  8  9  1  0  0  0  0
  8 10  1  0  0  0  0
  8 11  1  0  0  0  0
  5 12  2  0  0  0  0
  7 13  2  0  0  0  0
 13 14  1  0  0  0  0
 14 15  2  0  0  0  0
 15 16  1  0  0  0  0
 16  1  2  0  0  0  0
 15 17  1  0  0  0  0
  2 18  1  0  0  0  0
 18 19  2  0  0  0  0
 19 20  1  0  0  0  0
 20 21  2  0  0  0  0
 21 22  1  0  0  0  0
 22 23  2  0  0  0  0
 23 18  1  0  0  0  0
M  END
> <Molecule Name>
336

> <CDD Number>
CDD-15648

> <Human_sEH_IC50_uM>
116.0

> <Mouse_sEH_IC50_uM>
124.0

$$$$

SketchEl molfile

 18 19  0  0  0  0  0  0  0  0999 V2000
    1.2124    2.1000    0.0000 N   0  0  0  0  0  0  0  0  0  0  0  0
    1.2124    0.7000    0.0000 C   0  0  0  0  0  0  0  0  0  0  0  0
    2.4249    0.0000    0.0000 N   0  0  0  0  0  0  0  0  0  0  0  0
    3.6373    0.7000    0.0000 C   0  0  0  0  0  0  0  0  0  0  0  0
    3.6373    2.1000    0.0000 C   0  0  0  0  0  0  0  0  0  0  0  0
    2.4249    2.8000    0.0000 C   0  0  0  0  0  0  0  0  0  0  0  0
    2.4249    4.2000    0.0000 O   0  0  0  0  0  0  0  0  0  0  0  0
    0.0000    0.0000    0.0000 O   0  0  0  0  0  0  0  0  0  0  0  0
    4.8497    0.0000    0.0000 O   0  0  0  0  0  0  0  0  0  0  0  0
    4.8497    2.8000    0.0000 C   0  0  0  0  0  0  0  0  0  0  0  0
    6.0622    2.1000    0.0000 C   0  0  0  0  0  0  0  0  0  0  0  0
    7.2746    2.8000    0.0000 C   0  0  0  0  0  0  0  0  0  0  0  0
    7.2746    4.2000    0.0000 C   0  0  0  0  0  0  0  0  0  0  0  0
    6.0622    4.9000    0.0000 C   0  0  0  0  0  0  0  0  0  0  0  0
    4.8497    4.2000    0.0000 C   0  0  0  0  0  0  0  0  0  0  0  0
    4.6273    1.1101    0.0000 C   0  0  0  0  0  0  0  0  0  0  0  0
    5.9796    1.4724    0.0000 C   0  0  0  0  0  0  0  0  0  0  0  0
    8.4870    4.9000    0.0000 C   0  0  0  0  0  0  0  0  0  0  0  0
  1  2  1  0  0  0  0
  2  3  1  0  0  0  0
  3  4  1  0  0  0  0
  4  5  1  0  0  0  0
  5  6  1  0  0  0  0
  6  1  1  0  0  0  0
  6  7  2  0  0  0  0
  2  8  2  0  0  0  0
  4  9  2  0  0  0  0
  5 10  1  0  0  0  0
 10 11  2  0  0  0  0
 11 12  1  0  0  0  0
 12 13  2  0  0  0  0
 13 14  1  0  0  0  0
 14 15  2  0  0  0  0
 15 10  1  0  0  0  0
  5 16  1  0  0  0  0
 16 17  1  0  0  0  0
 13 18  1  0  0  0  0
M  END
> <Molecule Name>
335

> <CDD Number>
CDD-15646

> <Human_sEH_IC50_uM>
500.0

> <Mouse_sEH_IC50_uM>
500.0

$$$$

SketchEl molfile

 20 22  0  0  0  0  0  0  0  0999 V2000
    1.2124    5.4322    0.0000 C   0  0  0  0  0  0  0  0  0  0  0  0
    1.2124    4.0322    0.0000 C   0  0  0  0  0  0  0  0  0  0  0  0
    2.4249    3.3322    0.0000 C   0  0  0  0  0  0  0  0  0  0  0  0
    3.6373    4.0322    0.0000 C   0  0  0  0  0  0  0  0  0  0  0  0
    3.6373    5.4322    0.0000 C   0  0  0  0  0  0  0  0  0  0  0  0
    2.4249    6.1322    0.0000 C   0  0  0  0  0  0  0  0  0  0  0  0
    4.8497    3.3322    0.0000 C   0  0  0  0  0  0  0  0  0  0  0  0
    3.8598    2.3422    0.0000 C   0  0  0  0  0  0  0  0  0  0  0  0
    2.5075    2.7046    0.0000 C   0  0  0  0  0  0  0  0  0  0  0  0
    1.5175    1.7146    0.0000 C   0  0  0  0  0  0  0  0  0  0  0  0
    1.8799    0.3623    0.0000 C   0  0  0  0  0  0  0  0  0  0  0  0
    3.2322    0.0000    0.0000 C   0  0  0  0  0  0  0  0  0  0  0  0
    4.2221    0.9899    0.0000 C   0  0  0  0  0  0  0  0  0  0  0  0
    5.8397    2.3422    0.0000 N   0  0  0  0  0  0  0  0  0  0  0  0
    7.0521    3.0422    0.0000 C   0  0  0  0  0  0  0  0  0  0  0  0
    6.6898    4.3945    0.0000 N   0  0  0  0  0  0  0  0  0  0  0  0
    5.2121    4.6845    0.0000 C   0  0  0  0  0  0  0  0  0  0  0  0
    4.5121    5.8969    0.0000 O   0  0  0  0  0  0  0  0  0  0  0  0
    8.4044    2.6799    0.0000 O   0  0  0  0  0  0  0  0  0  0  0  0
    0.0000    6.1322    0.0000 O   0  0  0  0  0  0  0  0  0  0  0  0
  1  2  2  0  0  0  0
  2  3  1  0  0  0  0
  3  4  2  0  0  0  0
  4  5  1  0  0  0  0
  5  6  2  0  0  0  0
  6  1  1  0  0  0  0
  4  7  1  0  0  0  0
  7  8  1  0  0  0  0
  8  9  2  0  0  0  0
  9 10  1  0  0  0  0
 10 11  2  0  0  0  0
 11 12  1  0  0  0  0
 12 13  2  0  0  0  0
 13  8  1  0  0  0  0
  7 14  1  0  0  0  0
 14 15  1  0  0  0  0
 15 16  1  0  0  0  0
  7 17  1  0  0  0  0
 16 17  1  0  0  0  0
 17 18  2  0  0  0  0
 15 19  2  0  0  0  0
  1 20  1  0  0  0  0
M  END
> <Molecule Name>
334

> <CDD Number>
CDD-15647

> <Human_sEH_IC50_uM>
500.0

> <Mouse_sEH_IC50_uM>
500.0

$$$$

SketchEl molfile

 17 18  0  0  0  0  0  0  0  0999 V2000
    1.2124    2.1000    0.0000 N   0  0  0  0  0  0  0  0  0  0  0  0
    1.2124    0.7000    0.0000 C   0  0  0  0  0  0  0  0  0  0  0  0
    2.4249    0.0000    0.0000 N   0  0  0  0  0  0  0  0  0  0  0  0
    3.6373    0.7000    0.0000 C   0  0  0  0  0  0  0  0  0  0  0  0
    3.6373    2.1000    0.0000 C   0  0  0  0  0  0  0  0  0  0  0  0
    2.4249    2.8000    0.0000 C   0  0  0  0  0  0  0  0  0  0  0  0
    2.4249    4.2000    0.0000 O   0  0  0  0  0  0  0  0  0  0  0  0
    0.0000    0.0000    0.0000 O   0  0  0  0  0  0  0  0  0  0  0  0
    4.8497    0.0000    0.0000 O   0  0  0  0  0  0  0  0  0  0  0  0
    4.8497    2.8000    0.0000 C   0  0  0  0  0  0  0  0  0  0  0  0
    6.0622    2.1000    0.0000 C   0  0  0  0  0  0  0  0  0  0  0  0
    7.2746    2.8000    0.0000 C   0  0  0  0  0  0  0  0  0  0  0  0
    7.2746    4.2000    0.0000 C   0  0  0  0  0  0  0  0  0  0  0  0
    6.0622    4.9000    0.0000 C   0  0  0  0  0  0  0  0  0  0  0  0
    4.8497    4.2000    0.0000 C   0  0  0  0  0  0  0  0  0  0  0  0
    4.6273    1.1101    0.0000 C   0  0  0  0  0  0  0  0  0  0  0  0
    5.9796    1.4724    0.0000 C   0  0  0  0  0  0  0  0  0  0  0  0
  1  2  1  0  0  0  0
  2  3  1  0  0  0  0
  3  4  1  0  0  0  0
  4  5  1  0  0  0  0
  5  6  1  0  0  0  0
  6  1  1  0  0  0  0
  6  7  2  0  0  0  0
  2  8  2  0  0  0  0
  4  9  2  0  0  0  0
  5 10  1  0  0  0  0
 10 11  2  0  0  0  0
 11 12  1  0  0  0  0
 12 13  2  0  0  0  0
 13 14  1  0  0  0  0
 14 15  2  0  0  0  0
 15 10  1  0  0  0  0
  5 16  1  0  0  0  0
 16 17  1  0  0  0  0
M  END
> <Molecule Name>
333

> <CDD Number>
CDD-15645

> <Human_sEH_IC50_uM>
500.0

> <Mouse_sEH_IC50_uM>
500.0

$$$$

SketchEl molfile

 18 20  0  0  0  0  0  0  0  0999 V2000
    2.7046    3.0899    0.0000 C   0  0  0  0  0  0  0  0  0  0  0  0
    3.6945    2.1000    0.0000 C   0  0  0  0  0  0  0  0  0  0  0  0
    4.6845    3.0899    0.0000 C   0  0  0  0  0  0  0  0  0  0  0  0
    2.3422    4.4422    0.0000 C   0  0  0  0  0  0  0  0  0  0  0  0
    5.0468    4.4422    0.0000 C   0  0  0  0  0  0  0  0  0  0  0  0
    3.0422    5.6547    0.0000 C   0  0  0  0  0  0  0  0  0  0  0  0
    4.3468    5.6547    0.0000 C   0  0  0  0  0  0  0  0  0  0  0  0
    5.6744    2.1000    0.0000 C   0  0  0  0  0  0  0  0  0  0  0  0
    7.0267    2.4623    0.0000 C   0  0  0  0  0  0  0  0  0  0  0  0
    7.3891    3.8146    0.0000 C   0  0  0  0  0  0  0  0  0  0  0  0
    6.3991    4.8046    0.0000 C   0  0  0  0  0  0  0  0  0  0  0  0
    0.9899    4.8046    0.0000 C   0  0  0  0  0  0  0  0  0  0  0  0
    0.0000    3.8146    0.0000 C   0  0  0  0  0  0  0  0  0  0  0  0
    0.3623    2.4623    0.0000 C   0  0  0  0  0  0  0  0  0  0  0  0
    1.7146    2.1000    0.0000 C   0  0  0  0  0  0  0  0  0  0  0  0
    3.6945    0.7000    0.0000 C   0  0  0  0  0  0  0  0  0  0  0  0
    4.9070    0.0000    0.0000 N   0  0  0  0  0  0  0  0  0  0  0  0
    2.4821    0.0000    0.0000 O   0  0  0  0  0  0  0  0  0  0  0  0
  1  2  1  0  0  0  0
  2  3  1  0  0  0  0
  1  4  1  0  0  0  0
  3  5  2  0  0  0  0
  4  6  1  0  0  0  0
  5  7  1  0  0  0  0
  6  7  2  0  0  0  0
  3  8  1  0  0  0  0
  8  9  2  0  0  0  0
  9 10  1  0  0  0  0
 10 11  2  0  0  0  0
 11  5  1  0  0  0  0
  4 12  2  0  0  0  0
 12 13  1  0  0  0  0
 13 14  2  0  0  0  0
 14 15  1  0  0  0  0
 15  1  2  0  0  0  0
  2 16  1  0  0  0  0
 16 17  1  0  0  0  0
 16 18  2  0  0  0  0
M  END
> <Molecule Name>
332

> <CDD Number>
CDD-16170

> <Human_sEH_IC50_uM>
500.0

> <Mouse_sEH_IC50_uM>
500.0

$$$$

SketchEl molfile

 17 18  0  0  0  0  0  0  0  0999 V2000
    0.0000    5.4322    0.0000 C   0  0  0  0  0  0  0  0  0  0  0  0
    0.0000    4.0322    0.0000 C   0  0  0  0  0  0  0  0  0  0  0  0
    1.2124    3.3322    0.0000 C   0  0  0  0  0  0  0  0  0  0  0  0
    2.4249    4.0322    0.0000 C   0  0  0  0  0  0  0  0  0  0  0  0
    2.4249    5.4322    0.0000 C   0  0  0  0  0  0  0  0  0  0  0  0
    1.2124    6.1322    0.0000 C   0  0  0  0  0  0  0  0  0  0  0  0
    3.6373    3.3322    0.0000 C   0  0  0  0  0  0  0  0  0  0  0  0
    2.6474    2.3422    0.0000 C   0  0  0  0  0  0  0  0  0  0  0  0
    1.2951    2.7046    0.0000 C   0  0  0  0  0  0  0  0  0  0  0  0
    0.3051    1.7146    0.0000 C   0  0  0  0  0  0  0  0  0  0  0  0
    0.6675    0.3623    0.0000 C   0  0  0  0  0  0  0  0  0  0  0  0
    2.0198    0.0000    0.0000 C   0  0  0  0  0  0  0  0  0  0  0  0
    3.0097    0.9899    0.0000 C   0  0  0  0  0  0  0  0  0  0  0  0
    4.6273    4.3221    0.0000 N   0  0  0  0  0  0  0  0  0  0  0  0
    4.8497    2.6322    0.0000 C   0  0  0  0  0  0  0  0  0  0  0  0
    4.8497    1.2322    0.0000 O   0  0  0  0  0  0  0  0  0  0  0  0
    6.0622    3.3322    0.0000 O   0  0  0  0  0  0  0  0  0  0  0  0
  1  2  2  0  0  0  0
  2  3  1  0  0  0  0
  3  4  2  0  0  0  0
  4  5  1  0  0  0  0
  5  6  2  0  0  0  0
  6  1  1  0  0  0  0
  4  7  1  0  0  0  0
  7  8  1  0  0  0  0
  8  9  2  0  0  0  0
  9 10  1  0  0  0  0
 10 11  2  0  0  0  0
 11 12  1  0  0  0  0
 12 13  2  0  0  0  0
 13  8  1  0  0  0  0
  7 14  1  0  0  0  0
  7 15  1  0  0  0  0
 15 16  1  0  0  0  0
 15 17  2  0  0  0  0
M  END
> <Molecule Name>
331

> <CDD Number>
CDD-15644

> <Human_sEH_IC50_uM>
500.0

> <Mouse_sEH_IC50_uM>
500.0

$$$$

SketchEl molfile

 20 22  0  0  0  0  0  0  0  0999 V2000
    1.0472    5.4322    0.0000 C   0  0  0  0  0  0  0  0  0  0  0  0
    1.0472    4.0322    0.0000 C   0  0  0  0  0  0  0  0  0  0  0  0
    2.2596    3.3322    0.0000 C   0  0  0  0  0  0  0  0  0  0  0  0
    3.4721    4.0322    0.0000 C   0  0  0  0  0  0  0  0  0  0  0  0
    3.4721    5.4322    0.0000 C   0  0  0  0  0  0  0  0  0  0  0  0
    2.2596    6.1322    0.0000 C   0  0  0  0  0  0  0  0  0  0  0  0
    4.6845    3.3322    0.0000 C   0  0  0  0  0  0  0  0  0  0  0  0
    3.6945    2.3422    0.0000 C   0  0  0  0  0  0  0  0  0  0  0  0
    2.3422    2.7046    0.0000 C   0  0  0  0  0  0  0  0  0  0  0  0
    1.3523    1.7146    0.0000 C   0  0  0  0  0  0  0  0  0  0  0  0
    1.7146    0.3623    0.0000 C   0  0  0  0  0  0  0  0  0  0  0  0
    3.0669    0.0000    0.0000 C   0  0  0  0  0  0  0  0  0  0  0  0
    4.0569    0.9899    0.0000 C   0  0  0  0  0  0  0  0  0  0  0  0
    0.0000    2.0770    0.0000 O   0  0  0  0  0  0  0  0  0  0  0  0
    5.6744    2.3422    0.0000 N   0  0  0  0  0  0  0  0  0  0  0  0
    6.8869    3.0422    0.0000 C   0  0  0  0  0  0  0  0  0  0  0  0
    6.5245    4.3945    0.0000 N   0  0  0  0  0  0  0  0  0  0  0  0
    5.0468    4.6845    0.0000 C   0  0  0  0  0  0  0  0  0  0  0  0
    4.3468    5.8969    0.0000 O   0  0  0  0  0  0  0  0  0  0  0  0
    8.2392    2.6799    0.0000 O   0  0  0  0  0  0  0  0  0  0  0  0
  1  2  2  0  0  0  0
  2  3  1  0  0  0  0
  3  4  2  0  0  0  0
  4  5  1  0  0  0  0
  5  6  2  0  0  0  0
  6  1  1  0  0  0  0
  4  7  1  0  0  0  0
  7  8  1  0  0  0  0
  8  9  2  0  0  0  0
  9 10  1  0  0  0  0
 10 11  2  0  0  0  0
 11 12  1  0  0  0  0
 12 13  2  0  0  0  0
 13  8  1  0  0  0  0
 10 14  1  0  0  0  0
  7 15  1  0  0  0  0
 15 16  1  0  0  0  0
 16 17  1  0  0  0  0
  7 18  1  0  0  0  0
 17 18  1  0  0  0  0
 18 19  2  0  0  0  0
 16 20  2  0  0  0  0
M  END
> <Molecule Name>
330

> <CDD Number>
CDD-15643

> <Human_sEH_IC50_uM>
500.0

> <Mouse_sEH_IC50_uM>
500.0

$$$$

SketchEl molfile

 16 15  0  0  0  0  0  0  0  0999 V2000
    2.4249    0.0000    0.0000 C   0  0  0  0  0  0  0  0  0  0  0  0
    3.6373    0.7000    0.0000 C   0  0  0  0  0  0  0  0  0  0  0  0
    4.8497    0.0000    0.0000 C   0  0  0  0  0  0  0  0  0  0  0  0
    6.0622    0.7000    0.0000 C   0  0  0  0  0  0  0  0  0  0  0  0
    7.2746    0.0000    0.0000 C   0  0  0  0  0  0  0  0  0  0  0  0
    8.4870    0.7000    0.0000 C   0  0  0  0  0  0  0  0  0  0  0  0
    9.6995    0.0000    0.0000 C   0  0  0  0  0  0  0  0  0  0  0  0
   10.9119    0.7000    0.0000 C   0  0  0  0  0  0  0  0  0  0  0  0
   12.1244    0.0000    0.0000 C   0  0  0  0  0  0  0  0  0  0  0  0
   13.3368    0.7000    0.0000 C   0  0  0  0  0  0  0  0  0  0  0  0
   14.5492    0.0000    0.0000 C   0  0  0  0  0  0  0  0  0  0  0  0
   15.7617    0.7000    0.0000 C   0  0  0  0  0  0  0  0  0  0  0  0
   16.9741    0.0000    0.0000 N   0  0  0  0  0  0  0  0  0  0  0  0
   15.7617    2.1000    0.0000 O   0  0  0  0  0  0  0  0  0  0  0  0
    1.2124    0.7000    0.0000 C   0  0  0  0  0  0  0  0  0  0  0  0
    0.0000    0.0000    0.0000 C   0  0  0  0  0  0  0  0  0  0  0  0
  1  2  1  0  0  0  0
  2  3  1  0  0  0  0
  3  4  1  0  0  0  0
  4  5  1  0  0  0  0
  5  6  1  0  0  0  0
  6  7  1  0  0  0  0
  7  8  1  0  0  0  0
  8  9  1  0  0  0  0
  9 10  1  0  0  0  0
 10 11  1  0  0  0  0
 11 12  1  0  0  0  0
 12 13  1  0  0  0  0
 12 14  2  0  0  0  0
  1 15  1  0  0  0  0
 15 16  1  0  0  0  0
M  END
> <Molecule Name>
323

> <CDD Number>
CDD-16127

> <Human_sEH_IC50_uM>
500.0

> <Mouse_sEH_IC50_uM>
500.0

$$$$

SketchEl molfile

 14 13  0  0  0  0  0  0  0  0999 V2000
    0.0000    0.0000    0.0000 C   0  0  0  0  0  0  0  0  0  0  0  0
    1.2124    0.7000    0.0000 C   0  0  0  0  0  0  0  0  0  0  0  0
    2.4249    0.0000    0.0000 C   0  0  0  0  0  0  0  0  0  0  0  0
    3.6373    0.7000    0.0000 C   0  0  0  0  0  0  0  0  0  0  0  0
    4.8497    0.0000    0.0000 C   0  0  0  0  0  0  0  0  0  0  0  0
    6.0622    0.7000    0.0000 C   0  0  0  0  0  0  0  0  0  0  0  0
    7.2746    0.0000    0.0000 C   0  0  0  0  0  0  0  0  0  0  0  0
    8.4870    0.7000    0.0000 C   0  0  0  0  0  0  0  0  0  0  0  0
    9.6995    0.0000    0.0000 C   0  0  0  0  0  0  0  0  0  0  0  0
   10.9119    0.7000    0.0000 C   0  0  0  0  0  0  0  0  0  0  0  0
   12.1244    0.0000    0.0000 C   0  0  0  0  0  0  0  0  0  0  0  0
   13.3368    0.7000    0.0000 C   0  0  0  0  0  0  0  0  0  0  0  0
   14.5492    0.0000    0.0000 N   0  0  0  0  0  0  0  0  0  0  0  0
   13.3368    2.1000    0.0000 O   0  0  0  0  0  0  0  0  0  0  0  0
  1  2  1  0  0  0  0
  2  3  1  0  0  0  0
  3  4  1  0  0  0  0
  4  5  1  0  0  0  0
  5  6  1  0  0  0  0
  6  7  1  0  0  0  0
  7  8  1  0  0  0  0
  8  9  1  0  0  0  0
  9 10  1  0  0  0  0
 10 11  1  0  0  0  0
 11 12  1  0  0  0  0
 12 13  1  0  0  0  0
 12 14  2  0  0  0  0
M  END
> <Molecule Name>
322

> <CDD Number>
CDD-3967

> <Human_sEH_IC50_uM>
500.0

> <Mouse_sEH_IC50_uM>
500.0

$$$$

SketchEl molfile

  9  8  0  0  0  0  0  0  0  0999 V2000
    0.0000    0.0000    0.0000 C   0  0  0  0  0  0  0  0  0  0  0  0
    1.2124    0.7000    0.0000 C   0  0  0  0  0  0  0  0  0  0  0  0
    2.4249    0.0000    0.0000 C   0  0  0  0  0  0  0  0  0  0  0  0
    3.6373    0.7000    0.0000 C   0  0  0  0  0  0  0  0  0  0  0  0
    4.8497    0.0000    0.0000 C   0  0  0  0  0  0  0  0  0  0  0  0
    6.0622    0.7000    0.0000 C   0  0  0  0  0  0  0  0  0  0  0  0
    7.2746    0.0000    0.0000 N   0  0  0  0  0  0  0  0  0  0  0  0
    6.0622    2.1000    0.0000 C   0  0  0  0  0  0  0  0  0  0  0  0
    1.2124    2.1000    0.0000 C   0  0  0  0  0  0  0  0  0  0  0  0
  1  2  1  0  0  0  0
  2  3  1  0  0  0  0
  3  4  1  0  0  0  0
  4  5  1  0  0  0  0
  5  6  1  0  0  0  0
  6  7  1  0  0  0  0
  6  8  1  0  0  0  0
  2  9  1  0  0  0  0
M  END
> <Molecule Name>
321

> <CDD Number>
CDD-16188

> <Human_sEH_IC50_uM>
500.0

> <Mouse_sEH_IC50_uM>
500.0

$$$$

SketchEl molfile

  9  8  0  0  0  0  0  0  0  0999 V2000
    0.0000    0.7000    0.0000 C   0  0  0  0  0  0  0  0  0  0  0  0
    1.2124    0.0000    0.0000 C   0  0  0  0  0  0  0  0  0  0  0  0
    2.4249    0.7000    0.0000 C   0  0  0  0  0  0  0  0  0  0  0  0
    3.6373    0.0000    0.0000 C   0  0  0  0  0  0  0  0  0  0  0  0
    4.8497    0.7000    0.0000 C   0  0  0  0  0  0  0  0  0  0  0  0
    6.0622    0.0000    0.0000 C   0  0  0  0  0  0  0  0  0  0  0  0
    7.2746    0.7000    0.0000 C   0  0  0  0  0  0  0  0  0  0  0  0
    8.4870    0.0000    0.0000 N   0  0  0  0  0  0  0  0  0  0  0  0
    7.2746    2.1000    0.0000 C   0  0  0  0  0  0  0  0  0  0  0  0
  1  2  1  0  0  0  0
  2  3  1  0  0  0  0
  3  4  1  0  0  0  0
  4  5  1  0  0  0  0
  5  6  1  0  0  0  0
  6  7  1  0  0  0  0
  7  8  1  0  0  0  0
  7  9  1  0  0  0  0
M  END
> <Molecule Name>
320

> <CDD Number>
CDD-16187

> <Human_sEH_IC50_uM>
500.0

> <Mouse_sEH_IC50_uM>
500.0

$$$$

SketchEl molfile

 13 14  0  0  0  0  0  0  0  0999 V2000
    0.0000    2.1993    0.0000 C   0  0  0  0  0  0  0  0  0  0  0  0
    0.0000    0.7993    0.0000 C   0  0  0  0  0  0  0  0  0  0  0  0
    1.2124    0.0993    0.0000 C   0  0  0  0  0  0  0  0  0  0  0  0
    2.4249    0.7993    0.0000 C   0  0  0  0  0  0  0  0  0  0  0  0
    2.4249    2.1993    0.0000 C   0  0  0  0  0  0  0  0  0  0  0  0
    1.2124    2.8993    0.0000 C   0  0  0  0  0  0  0  0  0  0  0  0
    3.6373    0.0993    0.0000 N   0  0  0  0  0  0  0  0  0  0  0  0
    4.6273    0.7000    0.0000 C   0  0  0  0  0  0  0  0  0  0  0  0
    5.8397    0.0000    0.0000 C   0  0  0  0  0  0  0  0  0  0  0  0
    7.0521    0.7000    0.0000 C   0  0  0  0  0  0  0  0  0  0  0  0
    7.0521    2.1000    0.0000 C   0  0  0  0  0  0  0  0  0  0  0  0
    5.8397    2.8000    0.0000 C   0  0  0  0  0  0  0  0  0  0  0  0
    4.6273    2.1000    0.0000 C   0  0  0  0  0  0  0  0  0  0  0  0
  1  2  1  0  0  0  0
  2  3  1  0  0  0  0
  3  4  1  0  0  0  0
  4  5  1  0  0  0  0
  5  6  1  0  0  0  0
  6  1  1  0  0  0  0
  4  7  1  0  0  0  0
  7  8  1  0  0  0  0
  8  9  1  0  0  0  0
  9 10  1  0  0  0  0
 10 11  1  0  0  0  0
 11 12  1  0  0  0  0
 12 13  1  0  0  0  0
 13  8  1  0  0  0  0
M  END
> <Molecule Name>
319

> <CDD Number>
CDD-4356

> <Human_sEH_IC50_uM>
500.0

> <Mouse_sEH_IC50_uM>
500.0

$$$$

SketchEl molfile

 13 12  0  0  0  0  0  0  0  0999 V2000
    0.0000    0.0000    0.0000 N   0  0  0  0  0  0  0  0  0  0  0  0
    1.2124    0.7000    0.0000 C   0  0  0  0  0  0  0  0  0  0  0  0
    2.4249    0.0000    0.0000 C   0  0  0  0  0  0  0  0  0  0  0  0
    3.6373    0.7000    0.0000 C   0  0  0  0  0  0  0  0  0  0  0  0
    4.8497    0.0000    0.0000 C   0  0  0  0  0  0  0  0  0  0  0  0
    6.0622    0.7000    0.0000 C   0  0  0  0  0  0  0  0  0  0  0  0
    7.2746    0.0000    0.0000 C   0  0  0  0  0  0  0  0  0  0  0  0
    8.4870    0.7000    0.0000 C   0  0  0  0  0  0  0  0  0  0  0  0
    9.6995    0.0000    0.0000 C   0  0  0  0  0  0  0  0  0  0  0  0
   10.9119    0.7000    0.0000 C   0  0  0  0  0  0  0  0  0  0  0  0
   12.1244    0.0000    0.0000 C   0  0  0  0  0  0  0  0  0  0  0  0
   13.3368    0.7000    0.0000 C   0  0  0  0  0  0  0  0  0  0  0  0
   14.5492    0.0000    0.0000 N   0  0  0  0  0  0  0  0  0  0  0  0
  1  2  1  0  0  0  0
  2  3  1  0  0  0  0
  3  4  1  0  0  0  0
  4  5  1  0  0  0  0
  5  6  1  0  0  0  0
  6  7  1  0  0  0  0
  7  8  1  0  0  0  0
  8  9  1  0  0  0  0
  9 10  1  0  0  0  0
 10 11  1  0  0  0  0
 11 12  1  0  0  0  0
 12 13  1  0  0  0  0
M  END
> <Molecule Name>
318

> <CDD Number>
CDD-16186

> <Human_sEH_IC50_uM>
500.0

> <Mouse_sEH_IC50_uM>
500.0

$$$$

SketchEl molfile

 16 15  0  0  0  0  0  0  0  0999 V2000
    0.0000    0.0000    0.0000 C   0  0  0  0  0  0  0  0  0  0  0  0
    1.2124    0.7000    0.0000 C   0  0  0  0  0  0  0  0  0  0  0  0
    2.4249    0.0000    0.0000 C   0  0  0  0  0  0  0  0  0  0  0  0
    3.6373    0.7000    0.0000 C   0  0  0  0  0  0  0  0  0  0  0  0
    4.8497    0.0000    0.0000 C   0  0  0  0  0  0  0  0  0  0  0  0
    6.0622    0.7000    0.0000 C   0  0  0  0  0  0  0  0  0  0  0  0
    7.2746    0.0000    0.0000 C   0  0  0  0  0  0  0  0  0  0  0  0
    8.4870    0.7000    0.0000 C   0  0  0  0  0  0  0  0  0  0  0  0
    9.6995    0.0000    0.0000 C   0  0  0  0  0  0  0  0  0  0  0  0
   10.9119    0.7000    0.0000 C   0  0  0  0  0  0  0  0  0  0  0  0
   12.1244    0.0000    0.0000 C   0  0  0  0  0  0  0  0  0  0  0  0
   13.3368    0.7000    0.0000 C   0  0  0  0  0  0  0  0  0  0  0  0
   14.5492    0.0000    0.0000 C   0  0  0  0  0  0  0  0  0  0  0  0
   15.7617    0.7000    0.0000 N   0  0  0  0  0  0  0  0  0  0  0  0
   16.9741    0.0000    0.0000 C   0  0  0  0  0  0  0  0  0  0  0  0
   15.7617    2.1000    0.0000 C   0  0  0  0  0  0  0  0  0  0  0  0
  1  2  1  0  0  0  0
  2  3  1  0  0  0  0
  3  4  1  0  0  0  0
  4  5  1  0  0  0  0
  5  6  1  0  0  0  0
  6  7  1  0  0  0  0
  7  8  1  0  0  0  0
  8  9  1  0  0  0  0
  9 10  1  0  0  0  0
 10 11  1  0  0  0  0
 11 12  1  0  0  0  0
 12 13  1  0  0  0  0
 13 14  1  0  0  0  0
 14 15  1  0  0  0  0
 14 16  1  0  0  0  0
M  END
> <Molecule Name>
317

> <CDD Number>
CDD-16185

> <Human_sEH_IC50_uM>
500.0

> <Mouse_sEH_IC50_uM>
500.0

$$$$

SketchEl molfile

 13 12  0  0  0  0  0  0  0  0999 V2000
    0.0000    0.0000    0.0000 C   0  0  0  0  0  0  0  0  0  0  0  0
    1.2124    0.7000    0.0000 C   0  0  0  0  0  0  0  0  0  0  0  0
    2.4249    0.0000    0.0000 C   0  0  0  0  0  0  0  0  0  0  0  0
    3.6373    0.7000    0.0000 C   0  0  0  0  0  0  0  0  0  0  0  0
    4.8497    0.0000    0.0000 C   0  0  0  0  0  0  0  0  0  0  0  0
    6.0622    0.7000    0.0000 C   0  0  0  0  0  0  0  0  0  0  0  0
    7.2746    0.0000    0.0000 N   0  0  0  0  0  0  0  0  0  0  0  0
    8.4870    0.7000    0.0000 C   0  0  0  0  0  0  0  0  0  0  0  0
    9.6995    0.0000    0.0000 C   0  0  0  0  0  0  0  0  0  0  0  0
   10.9119    0.7000    0.0000 C   0  0  0  0  0  0  0  0  0  0  0  0
   12.1244    0.0000    0.0000 C   0  0  0  0  0  0  0  0  0  0  0  0
   13.3368    0.7000    0.0000 C   0  0  0  0  0  0  0  0  0  0  0  0
   14.5492    0.0000    0.0000 C   0  0  0  0  0  0  0  0  0  0  0  0
  1  2  1  0  0  0  0
  2  3  1  0  0  0  0
  3  4  1  0  0  0  0
  4  5  1  0  0  0  0
  5  6  1  0  0  0  0
  6  7  1  0  0  0  0
  7  8  1  0  0  0  0
  8  9  1  0  0  0  0
  9 10  1  0  0  0  0
 10 11  1  0  0  0  0
 11 12  1  0  0  0  0
 12 13  1  0  0  0  0
M  END
> <Molecule Name>
316

> <CDD Number>
CDD-16184

> <Human_sEH_IC50_uM>
20.0

> <Mouse_sEH_IC50_uM>
22.0

$$$$

SketchEl molfile

 11 12  0  0  0  0  0  0  0  0999 V2000
    0.0000    2.1000    0.0000 C   0  0  0  0  0  0  0  0  0  0  0  0
    0.0000    0.7000    0.0000 C   0  0  0  0  0  0  0  0  0  0  0  0
    1.2124    0.0000    0.0000 C   0  0  0  0  0  0  0  0  0  0  0  0
    2.4249    0.7000    0.0000 C   0  0  0  0  0  0  0  0  0  0  0  0
    2.4249    2.1000    0.0000 C   0  0  0  0  0  0  0  0  0  0  0  0
    1.2124    2.8000    0.0000 C   0  0  0  0  0  0  0  0  0  0  0  0
    3.6373    0.0000    0.0000 C   0  0  0  0  0  0  0  0  0  0  0  0
    4.8497    0.7000    0.0000 C   0  0  0  0  0  0  0  0  0  0  0  0
    4.8497    2.1000    0.0000 C   0  0  0  0  0  0  0  0  0  0  0  0
    3.6373    2.8000    0.0000 C   0  0  0  0  0  0  0  0  0  0  0  0
    3.6373    4.2000    0.0000 N   0  0  0  0  0  0  0  0  0  0  0  0
  1  2  2  0  0  0  0
  2  3  1  0  0  0  0
  3  4  2  0  0  0  0
  4  5  1  0  0  0  0
  5  6  2  0  0  0  0
  6  1  1  0  0  0  0
  4  7  1  0  0  0  0
  7  8  2  0  0  0  0
  8  9  1  0  0  0  0
  9 10  2  0  0  0  0
 10  5  1  0  0  0  0
 10 11  1  0  0  0  0
M  END
> <Molecule Name>
315

> <CDD Number>
CDD-6703

> <Human_sEH_IC50_uM>
500.0

> <Mouse_sEH_IC50_uM>
500.0

$$$$

SketchEl molfile

 20 19  0  0  0  0  0  0  0  0999 V2000
   11.0995    0.7000    0.0000 C   0  0  0  0  0  0  0  0  0  0  0  0
   12.3119    0.0000    0.0000 C   0  0  0  0  0  0  0  0  0  0  0  0
   13.5244    0.7000    0.0000 C   0  0  0  0  0  0  0  0  0  0  0  0
   14.7368    0.0000    0.0000 C   0  0  0  0  0  0  0  0  0  0  0  0
   15.9492    0.7000    0.0000 C   0  0  0  0  0  0  0  0  0  0  0  0
   17.1617    0.0000    0.0000 C   0  0  0  0  0  0  0  0  0  0  0  0
   18.3741    0.7000    0.0000 C   0  0  0  0  0  0  0  0  0  0  0  0
   19.5865    0.0000    0.0000 C   0  0  0  0  0  0  0  0  0  0  0  0
   20.7990    0.7000    0.0000 C   0  0  0  0  0  0  0  0  0  0  0  0
   22.0114    0.0000    0.0000 N   0  0  0  0  0  0  0  0  0  0  0  0
   20.7990    2.1000    0.0000 O   0  0  0  0  0  0  0  0  0  0  0  0
    9.6995    0.7000    0.0000 C   0  0  0  0  0  0  0  0  0  0  0  0
    8.4870    0.0000    0.0000 C   0  0  0  0  0  0  0  0  0  0  0  0
    7.2746    0.7000    0.0000 C   0  0  0  0  0  0  0  0  0  0  0  0
    6.0622    0.0000    0.0000 C   0  0  0  0  0  0  0  0  0  0  0  0
    4.8497    0.7000    0.0000 C   0  0  0  0  0  0  0  0  0  0  0  0
    3.6373    0.0000    0.0000 C   0  0  0  0  0  0  0  0  0  0  0  0
    2.4249    0.7000    0.0000 C   0  0  0  0  0  0  0  0  0  0  0  0
    1.2124    0.0000    0.0000 C   0  0  0  0  0  0  0  0  0  0  0  0
    0.0000    0.7000    0.0000 C   0  0  0  0  0  0  0  0  0  0  0  0
  1  2  1  0  0  0  0
  2  3  1  0  0  0  0
  3  4  1  0  0  0  0
  4  5  1  0  0  0  0
  5  6  1  0  0  0  0
  6  7  1  0  0  0  0
  7  8  1  0  0  0  0
  8  9  1  0  0  0  0
  9 10  1  0  0  0  0
  9 11  2  0  0  0  0
  1 12  2  0  0  0  0
 12 13  1  0  0  0  0
 13 14  1  0  0  0  0
 14 15  1  0  0  0  0
 15 16  1  0  0  0  0
 16 17  1  0  0  0  0
 17 18  1  0  0  0  0
 18 19  1  0  0  0  0
 19 20  1  0  0  0  0
M  END
> <Molecule Name>
314

> <CDD Number>
CDD-16131

> <Human_sEH_IC50_uM>
500.0

> <Mouse_sEH_IC50_uM>
500.0

$$$$

SketchEl molfile

 15 14  0  0  0  0  0  0  0  0999 V2000
    0.0000    0.0000    0.0000 C   0  0  0  0  0  0  0  0  0  0  0  0
    1.2124    0.7000    0.0000 C   0  0  0  0  0  0  0  0  0  0  0  0
    2.4249    0.0000    0.0000 C   0  0  0  0  0  0  0  0  0  0  0  0
    3.6373    0.7000    0.0000 C   0  0  0  0  0  0  0  0  0  0  0  0
    4.8497    0.0000    0.0000 C   0  0  0  0  0  0  0  0  0  0  0  0
    6.0622    0.7000    0.0000 C   0  0  0  0  0  0  0  0  0  0  0  0
    7.2746    0.0000    0.0000 C   0  0  0  0  0  0  0  0  0  0  0  0
    8.4870    0.7000    0.0000 C   0  0  0  0  0  0  0  0  0  0  0  0
    9.6995    0.0000    0.0000 C   0  0  0  0  0  0  0  0  0  0  0  0
   10.9119    0.7000    0.0000 C   0  0  0  0  0  0  0  0  0  0  0  0
   12.1244    0.0000    0.0000 C   0  0  0  0  0  0  0  0  0  0  0  0
   13.3368    0.7000    0.0000 C   0  0  0  0  0  0  0  0  0  0  0  0
   14.5492    0.0000    0.0000 C   0  0  0  0  0  0  0  0  0  0  0  0
   15.7617    0.7000    0.0000 N   0  0  0  0  0  0  0  0  0  0  0  0
   15.7617    2.1000    0.0000 C   0  0  0  0  0  0  0  0  0  0  0  0
  1  2  1  0  0  0  0
  2  3  1  0  0  0  0
  3  4  1  0  0  0  0
  4  5  1  0  0  0  0
  5  6  1  0  0  0  0
  6  7  1  0  0  0  0
  7  8  1  0  0  0  0
  8  9  1  0  0  0  0
  9 10  1  0  0  0  0
 10 11  1  0  0  0  0
 11 12  1  0  0  0  0
 12 13  1  0  0  0  0
 13 14  1  0  0  0  0
 14 15  1  0  0  0  0
M  END
> <Molecule Name>
313

> <CDD Number>
CDD-16183

> <Human_sEH_IC50_uM>
500.0

> <Mouse_sEH_IC50_uM>
500.0

$$$$

SketchEl molfile

 13 12  0  0  0  0  0  0  0  0999 V2000
    4.2000    2.5647    0.0000 N   0  0  0  0  0  0  0  0  0  0  0  0
    5.4124    1.8647    0.0000 C   0  0  0  0  0  0  0  0  0  0  0  0
    6.6249    2.5647    0.0000 C   0  0  0  0  0  0  0  0  0  0  0  0
    7.8373    1.8647    0.0000 C   0  0  0  0  0  0  0  0  0  0  0  0
    9.0497    2.5647    0.0000 C   0  0  0  0  0  0  0  0  0  0  0  0
    3.5000    3.7772    0.0000 C   0  0  0  0  0  0  0  0  0  0  0  0
    2.1000    3.7772    0.0000 C   0  0  0  0  0  0  0  0  0  0  0  0
    1.4000    4.9896    0.0000 C   0  0  0  0  0  0  0  0  0  0  0  0
    0.0000    4.9896    0.0000 C   0  0  0  0  0  0  0  0  0  0  0  0
    3.5000    1.3523    0.0000 C   0  0  0  0  0  0  0  0  0  0  0  0
    2.1000    1.3523    0.0000 C   0  0  0  0  0  0  0  0  0  0  0  0
    1.7377    0.0000    0.0000 C   0  0  0  0  0  0  0  0  0  0  0  0
    0.3377    0.0000    0.0000 C   0  0  0  0  0  0  0  0  0  0  0  0
  1  2  1  0  0  0  0
  2  3  1  0  0  0  0
  3  4  1  0  0  0  0
  4  5  1  0  0  0  0
  1  6  1  0  0  0  0
  6  7  1  0  0  0  0
  7  8  1  0  0  0  0
  8  9  1  0  0  0  0
  1 10  1  0  0  0  0
 10 11  1  0  0  0  0
 11 12  1  0  0  0  0
 12 13  1  0  0  0  0
M  END
> <Molecule Name>
312

> <CDD Number>
CDD-16182

> <Human_sEH_IC50_uM>
500.0

> <Mouse_sEH_IC50_uM>
500.0

$$$$

SketchEl molfile

 12 11  0  0  0  0  0  0  0  0999 V2000
    0.0000    0.0000    0.0000 N   0  0  0  0  0  0  0  0  0  0  0  0
    1.2124    0.7000    0.0000 C   0  0  0  0  0  0  0  0  0  0  0  0
    2.4249    0.0000    0.0000 C   0  0  0  0  0  0  0  0  0  0  0  0
    3.6373    0.7000    0.0000 C   0  0  0  0  0  0  0  0  0  0  0  0
    4.8497    0.0000    0.0000 C   0  0  0  0  0  0  0  0  0  0  0  0
    6.0622    0.7000    0.0000 C   0  0  0  0  0  0  0  0  0  0  0  0
    7.2746    0.0000    0.0000 C   0  0  0  0  0  0  0  0  0  0  0  0
    8.4870    0.7000    0.0000 C   0  0  0  0  0  0  0  0  0  0  0  0
    9.6995    0.0000    0.0000 C   0  0  0  0  0  0  0  0  0  0  0  0
   10.9119    0.7000    0.0000 C   0  0  0  0  0  0  0  0  0  0  0  0
   12.1244    0.0000    0.0000 C   0  0  0  0  0  0  0  0  0  0  0  0
   13.3368    0.7000    0.0000 N   0  0  0  0  0  0  0  0  0  0  0  0
  1  2  1  0  0  0  0
  2  3  1  0  0  0  0
  3  4  1  0  0  0  0
  4  5  1  0  0  0  0
  5  6  1  0  0  0  0
  6  7  1  0  0  0  0
  7  8  1  0  0  0  0
  8  9  1  0  0  0  0
  9 10  1  0  0  0  0
 10 11  1  0  0  0  0
 11 12  1  0  0  0  0
M  END
> <Molecule Name>
311

> <CDD Number>
CDD-6057

> <Human_sEH_IC50_uM>
500.0

> <Mouse_sEH_IC50_uM>
500.0

$$$$

SketchEl molfile

 11 12  0  0  0  0  0  0  0  0999 V2000
    0.0000    2.1000    0.0000 C   0  0  0  0  0  0  0  0  0  0  0  0
    0.0000    0.7000    0.0000 C   0  0  0  0  0  0  0  0  0  0  0  0
    1.2124    0.0000    0.0000 C   0  0  0  0  0  0  0  0  0  0  0  0
    2.4249    0.7000    0.0000 C   0  0  0  0  0  0  0  0  0  0  0  0
    2.4249    2.1000    0.0000 C   0  0  0  0  0  0  0  0  0  0  0  0
    1.2124    2.8000    0.0000 C   0  0  0  0  0  0  0  0  0  0  0  0
    3.6373    0.0000    0.0000 C   0  0  0  0  0  0  0  0  0  0  0  0
    4.8497    0.7000    0.0000 C   0  0  0  0  0  0  0  0  0  0  0  0
    4.8497    2.1000    0.0000 C   0  0  0  0  0  0  0  0  0  0  0  0
    3.6373    2.8000    0.0000 C   0  0  0  0  0  0  0  0  0  0  0  0
    6.0622    2.8000    0.0000 N   0  0  0  0  0  0  0  0  0  0  0  0
  1  2  2  0  0  0  0
  2  3  1  0  0  0  0
  3  4  2  0  0  0  0
  4  5  1  0  0  0  0
  5  6  2  0  0  0  0
  6  1  1  0  0  0  0
  4  7  1  0  0  0  0
  7  8  2  0  0  0  0
  8  9  1  0  0  0  0
  9 10  2  0  0  0  0
 10  5  1  0  0  0  0
  9 11  1  0  0  0  0
M  END
> <Molecule Name>
310

> <CDD Number>
CDD-6704

> <Human_sEH_IC50_uM>
500.0

> <Mouse_sEH_IC50_uM>
500.0

$$$$

SketchEl molfile

 19 18  0  0  0  0  0  0  0  0999 V2000
    0.0000    0.0000    0.0000 C   0  0  0  0  0  0  0  0  0  0  0  0
    1.2124    0.7000    0.0000 C   0  0  0  0  0  0  0  0  0  0  0  0
    2.4249    0.0000    0.0000 C   0  0  0  0  0  0  0  0  0  0  0  0
    3.6373    0.7000    0.0000 C   0  0  0  0  0  0  0  0  0  0  0  0
    4.8497    0.0000    0.0000 C   0  0  0  0  0  0  0  0  0  0  0  0
    6.0622    0.7000    0.0000 C   0  0  0  0  0  0  0  0  0  0  0  0
    7.2746    0.0000    0.0000 C   0  0  0  0  0  0  0  0  0  0  0  0
    8.4870    0.7000    0.0000 C   0  0  0  0  0  0  0  0  0  0  0  0
    9.6995    0.0000    0.0000 C   0  0  0  0  0  0  0  0  0  0  0  0
   11.0995    0.0000    0.0000 C   0  0  0  0  0  0  0  0  0  0  0  0
   12.3119    0.7000    0.0000 C   0  0  0  0  0  0  0  0  0  0  0  0
   13.5244    0.0000    0.0000 C   0  0  0  0  0  0  0  0  0  0  0  0
   14.7368    0.7000    0.0000 C   0  0  0  0  0  0  0  0  0  0  0  0
   15.9492    0.0000    0.0000 C   0  0  0  0  0  0  0  0  0  0  0  0
   17.1617    0.7000    0.0000 C   0  0  0  0  0  0  0  0  0  0  0  0
   18.3741    0.0000    0.0000 C   0  0  0  0  0  0  0  0  0  0  0  0
   19.5865    0.7000    0.0000 C   0  0  0  0  0  0  0  0  0  0  0  0
   20.7990    0.0000    0.0000 C   0  0  0  0  0  0  0  0  0  0  0  0
   22.0114    0.7000    0.0000 N   0  0  0  0  0  0  0  0  0  0  0  0
  1  2  1  0  0  0  0
  2  3  1  0  0  0  0
  3  4  1  0  0  0  0
  4  5  1  0  0  0  0
  5  6  1  0  0  0  0
  6  7  1  0  0  0  0
  7  8  1  0  0  0  0
  8  9  1  0  0  0  0
  9 10  2  0  0  0  0
 10 11  1  0  0  0  0
 11 12  1  0  0  0  0
 12 13  1  0  0  0  0
 13 14  1  0  0  0  0
 14 15  1  0  0  0  0
 15 16  1  0  0  0  0
 16 17  1  0  0  0  0
 17 18  1  0  0  0  0
 18 19  1  0  0  0  0
M  END
> <Molecule Name>
309

> <CDD Number>
CDD-16181

> <Human_sEH_IC50_uM>
500.0

> <Mouse_sEH_IC50_uM>
500.0

$$$$

SketchEl molfile

 15 14  0  0  0  0  0  0  0  0999 V2000
    0.0000    1.4000    0.0000 N   0  0  0  0  0  0  0  0  0  0  0  0
    1.2124    2.1000    0.0000 C   0  0  0  0  0  0  0  0  0  0  0  0
    2.4249    1.4000    0.0000 C   0  0  0  0  0  0  0  0  0  0  0  0
    3.6373    2.1000    0.0000 C   0  0  0  0  0  0  0  0  0  0  0  0
    4.8497    1.4000    0.0000 C   0  0  0  0  0  0  0  0  0  0  0  0
    6.0622    2.1000    0.0000 C   0  0  0  0  0  0  0  0  0  0  0  0
    7.2746    1.4000    0.0000 C   0  0  0  0  0  0  0  0  0  0  0  0
    8.4870    2.1000    0.0000 C   0  0  0  0  0  0  0  0  0  0  0  0
    9.6995    1.4000    0.0000 C   0  0  0  0  0  0  0  0  0  0  0  0
   10.9119    2.1000    0.0000 C   0  0  0  0  0  0  0  0  0  0  0  0
   12.1244    1.4000    0.0000 C   0  0  0  0  0  0  0  0  0  0  0  0
   13.3368    2.1000    0.0000 C   0  0  0  0  0  0  0  0  0  0  0  0
   14.5492    1.4000    0.0000 C   0  0  0  0  0  0  0  0  0  0  0  0
   15.7617    2.1000    0.0000 O   0  0  0  0  0  0  0  0  0  0  0  0
   14.5492    0.0000    0.0000 O   0  0  0  0  0  0  0  0  0  0  0  0
  1  2  1  0  0  0  0
  2  3  1  0  0  0  0
  3  4  1  0  0  0  0
  4  5  1  0  0  0  0
  5  6  1  0  0  0  0
  6  7  1  0  0  0  0
  7  8  1  0  0  0  0
  8  9  1  0  0  0  0
  9 10  1  0  0  0  0
 10 11  1  0  0  0  0
 11 12  1  0  0  0  0
 12 13  1  0  0  0  0
 13 14  1  0  0  0  0
 13 15  2  0  0  0  0
M  END
> <Molecule Name>
308

> <CDD Number>
CDD-16180

> <Human_sEH_IC50_uM>
500.0

> <Mouse_sEH_IC50_uM>
500.0

$$$$

SketchEl molfile

 19 18  0  0  0  0  0  0  0  0999 V2000
    0.0000    0.0000    0.0000 C   0  0  0  0  0  0  0  0  0  0  0  0
    1.2124    0.7000    0.0000 C   0  0  0  0  0  0  0  0  0  0  0  0
    2.4249    0.0000    0.0000 C   0  0  0  0  0  0  0  0  0  0  0  0
    3.6373    0.7000    0.0000 C   0  0  0  0  0  0  0  0  0  0  0  0
    4.8497    0.0000    0.0000 C   0  0  0  0  0  0  0  0  0  0  0  0
    6.0622    0.7000    0.0000 C   0  0  0  0  0  0  0  0  0  0  0  0
    7.2746    0.0000    0.0000 C   0  0  0  0  0  0  0  0  0  0  0  0
    8.4870    0.7000    0.0000 C   0  0  0  0  0  0  0  0  0  0  0  0
    9.6995    0.0000    0.0000 C   0  0  0  0  0  0  0  0  0  0  0  0
   10.9119    0.7000    0.0000 C   0  0  0  0  0  0  0  0  0  0  0  0
   12.1244    0.0000    0.0000 C   0  0  0  0  0  0  0  0  0  0  0  0
   13.3368    0.7000    0.0000 C   0  0  0  0  0  0  0  0  0  0  0  0
   14.5492    0.0000    0.0000 C   0  0  0  0  0  0  0  0  0  0  0  0
   15.7617    0.7000    0.0000 C   0  0  0  0  0  0  0  0  0  0  0  0
   16.9741    0.0000    0.0000 C   0  0  0  0  0  0  0  0  0  0  0  0
   18.1865    0.7000    0.0000 C   0  0  0  0  0  0  0  0  0  0  0  0
   19.3990    0.0000    0.0000 C   0  0  0  0  0  0  0  0  0  0  0  0
   20.6114    0.7000    0.0000 C   0  0  0  0  0  0  0  0  0  0  0  0
   21.8238    0.0000    0.0000 N   0  0  0  0  0  0  0  0  0  0  0  0
  1  2  1  0  0  0  0
  2  3  1  0  0  0  0
  3  4  1  0  0  0  0
  4  5  1  0  0  0  0
  5  6  1  0  0  0  0
  6  7  1  0  0  0  0
  7  8  1  0  0  0  0
  8  9  1  0  0  0  0
  9 10  1  0  0  0  0
 10 11  1  0  0  0  0
 11 12  1  0  0  0  0
 12 13  1  0  0  0  0
 13 14  1  0  0  0  0
 14 15  1  0  0  0  0
 15 16  1  0  0  0  0
 16 17  1  0  0  0  0
 17 18  1  0  0  0  0
 18 19  1  0  0  0  0
M  END
> <Molecule Name>
307

> <CDD Number>
CDD-4380

> <Human_sEH_IC50_uM>
500.0

> <Mouse_sEH_IC50_uM>
500.0

$$$$

SketchEl molfile

 17 16  0  0  0  0  0  0  0  0999 V2000
    0.0000    0.0000    0.0000 C   0  0  0  0  0  0  0  0  0  0  0  0
    1.2124    0.7000    0.0000 C   0  0  0  0  0  0  0  0  0  0  0  0
    2.4249    0.0000    0.0000 C   0  0  0  0  0  0  0  0  0  0  0  0
    3.6373    0.7000    0.0000 C   0  0  0  0  0  0  0  0  0  0  0  0
    4.8497    0.0000    0.0000 C   0  0  0  0  0  0  0  0  0  0  0  0
    6.0622    0.7000    0.0000 C   0  0  0  0  0  0  0  0  0  0  0  0
    7.2746    0.0000    0.0000 C   0  0  0  0  0  0  0  0  0  0  0  0
    8.4870    0.7000    0.0000 C   0  0  0  0  0  0  0  0  0  0  0  0
    9.6995    0.0000    0.0000 C   0  0  0  0  0  0  0  0  0  0  0  0
   10.9119    0.7000    0.0000 C   0  0  0  0  0  0  0  0  0  0  0  0
   12.1244    0.0000    0.0000 C   0  0  0  0  0  0  0  0  0  0  0  0
   13.3368    0.7000    0.0000 C   0  0  0  0  0  0  0  0  0  0  0  0
   14.5492    0.0000    0.0000 C   0  0  0  0  0  0  0  0  0  0  0  0
   15.7617    0.7000    0.0000 C   0  0  0  0  0  0  0  0  0  0  0  0
   16.9741    0.0000    0.0000 C   0  0  0  0  0  0  0  0  0  0  0  0
   18.1865    0.7000    0.0000 C   0  0  0  0  0  0  0  0  0  0  0  0
   19.3990    0.0000    0.0000 N   0  0  0  0  0  0  0  0  0  0  0  0
  1  2  1  0  0  0  0
  2  3  1  0  0  0  0
  3  4  1  0  0  0  0
  4  5  1  0  0  0  0
  5  6  1  0  0  0  0
  6  7  1  0  0  0  0
  7  8  1  0  0  0  0
  8  9  1  0  0  0  0
  9 10  1  0  0  0  0
 10 11  1  0  0  0  0
 11 12  1  0  0  0  0
 12 13  1  0  0  0  0
 13 14  1  0  0  0  0
 14 15  1  0  0  0  0
 15 16  1  0  0  0  0
 16 17  1  0  0  0  0
M  END
> <Molecule Name>
306

> <CDD Number>
CDD-4371

> <Human_sEH_IC50_uM>
500.0

> <Mouse_sEH_IC50_uM>
500.0

$$$$

SketchEl molfile

 15 14  0  0  0  0  0  0  0  0999 V2000
    0.0000    0.0000    0.0000 C   0  0  0  0  0  0  0  0  0  0  0  0
    1.2124    0.7000    0.0000 C   0  0  0  0  0  0  0  0  0  0  0  0
    2.4249    0.0000    0.0000 C   0  0  0  0  0  0  0  0  0  0  0  0
    3.6373    0.7000    0.0000 C   0  0  0  0  0  0  0  0  0  0  0  0
    4.8497    0.0000    0.0000 C   0  0  0  0  0  0  0  0  0  0  0  0
    6.0622    0.7000    0.0000 C   0  0  0  0  0  0  0  0  0  0  0  0
    7.2746    0.0000    0.0000 C   0  0  0  0  0  0  0  0  0  0  0  0
    8.4870    0.7000    0.0000 C   0  0  0  0  0  0  0  0  0  0  0  0
    9.6995    0.0000    0.0000 C   0  0  0  0  0  0  0  0  0  0  0  0
   10.9119    0.7000    0.0000 C   0  0  0  0  0  0  0  0  0  0  0  0
   12.1244    0.0000    0.0000 C   0  0  0  0  0  0  0  0  0  0  0  0
   13.3368    0.7000    0.0000 C   0  0  0  0  0  0  0  0  0  0  0  0
   14.5492    0.0000    0.0000 C   0  0  0  0  0  0  0  0  0  0  0  0
   15.7617    0.7000    0.0000 C   0  0  0  0  0  0  0  0  0  0  0  0
   16.9741    0.0000    0.0000 N   0  0  0  0  0  0  0  0  0  0  0  0
  1  2  1  0  0  0  0
  2  3  1  0  0  0  0
  3  4  1  0  0  0  0
  4  5  1  0  0  0  0
  5  6  1  0  0  0  0
  6  7  1  0  0  0  0
  7  8  1  0  0  0  0
  8  9  1  0  0  0  0
  9 10  1  0  0  0  0
 10 11  1  0  0  0  0
 11 12  1  0  0  0  0
 12 13  1  0  0  0  0
 13 14  1  0  0  0  0
 14 15  1  0  0  0  0
M  END
> <Molecule Name>
305

> <CDD Number>
CDD-4364

> <Human_sEH_IC50_uM>
500.0

> <Mouse_sEH_IC50_uM>
500.0

$$$$

SketchEl molfile

 13 12  0  0  0  0  0  0  0  0999 V2000
    0.0000    0.0000    0.0000 C   0  0  0  0  0  0  0  0  0  0  0  0
    1.2124    0.7000    0.0000 C   0  0  0  0  0  0  0  0  0  0  0  0
    2.4249    0.0000    0.0000 C   0  0  0  0  0  0  0  0  0  0  0  0
    3.6373    0.7000    0.0000 C   0  0  0  0  0  0  0  0  0  0  0  0
    4.8497    0.0000    0.0000 C   0  0  0  0  0  0  0  0  0  0  0  0
    6.0622    0.7000    0.0000 C   0  0  0  0  0  0  0  0  0  0  0  0
    7.2746    0.0000    0.0000 C   0  0  0  0  0  0  0  0  0  0  0  0
    8.4870    0.7000    0.0000 C   0  0  0  0  0  0  0  0  0  0  0  0
    9.6995    0.0000    0.0000 C   0  0  0  0  0  0  0  0  0  0  0  0
   10.9119    0.7000    0.0000 C   0  0  0  0  0  0  0  0  0  0  0  0
   12.1244    0.0000    0.0000 C   0  0  0  0  0  0  0  0  0  0  0  0
   13.3368    0.7000    0.0000 C   0  0  0  0  0  0  0  0  0  0  0  0
   14.5492    0.0000    0.0000 N   0  0  0  0  0  0  0  0  0  0  0  0
  1  2  1  0  0  0  0
  2  3  1  0  0  0  0
  3  4  1  0  0  0  0
  4  5  1  0  0  0  0
  5  6  1  0  0  0  0
  6  7  1  0  0  0  0
  7  8  1  0  0  0  0
  8  9  1  0  0  0  0
  9 10  1  0  0  0  0
 10 11  1  0  0  0  0
 11 12  1  0  0  0  0
 12 13  1  0  0  0  0
M  END
> <Molecule Name>
304

> <CDD Number>
CDD-4358

> <Human_sEH_IC50_uM>
500.0

> <Mouse_sEH_IC50_uM>
500.0

$$$$

SketchEl molfile

 11 10  0  0  0  0  0  0  0  0999 V2000
    0.0000    0.0000    0.0000 C   0  0  0  0  0  0  0  0  0  0  0  0
    1.2124    0.7000    0.0000 C   0  0  0  0  0  0  0  0  0  0  0  0
    2.4249    0.0000    0.0000 C   0  0  0  0  0  0  0  0  0  0  0  0
    3.6373    0.7000    0.0000 C   0  0  0  0  0  0  0  0  0  0  0  0
    4.8497    0.0000    0.0000 C   0  0  0  0  0  0  0  0  0  0  0  0
    6.0622    0.7000    0.0000 C   0  0  0  0  0  0  0  0  0  0  0  0
    7.2746    0.0000    0.0000 C   0  0  0  0  0  0  0  0  0  0  0  0
    8.4870    0.7000    0.0000 C   0  0  0  0  0  0  0  0  0  0  0  0
    9.6995    0.0000    0.0000 C   0  0  0  0  0  0  0  0  0  0  0  0
   10.9119    0.7000    0.0000 C   0  0  0  0  0  0  0  0  0  0  0  0
   12.1244    0.0000    0.0000 N   0  0  0  0  0  0  0  0  0  0  0  0
  1  2  1  0  0  0  0
  2  3  1  0  0  0  0
  3  4  1  0  0  0  0
  4  5  1  0  0  0  0
  5  6  1  0  0  0  0
  6  7  1  0  0  0  0
  7  8  1  0  0  0  0
  8  9  1  0  0  0  0
  9 10  1  0  0  0  0
 10 11  1  0  0  0  0
M  END
> <Molecule Name>
303

> <CDD Number>
CDD-4353

> <Human_sEH_IC50_uM>
500.0

> <Mouse_sEH_IC50_uM>
500.0

$$$$

SketchEl molfile

  9  8  0  0  0  0  0  0  0  0999 V2000
    0.0000    0.0000    0.0000 C   0  0  0  0  0  0  0  0  0  0  0  0
    1.2124    0.7000    0.0000 C   0  0  0  0  0  0  0  0  0  0  0  0
    2.4249    0.0000    0.0000 C   0  0  0  0  0  0  0  0  0  0  0  0
    3.6373    0.7000    0.0000 C   0  0  0  0  0  0  0  0  0  0  0  0
    4.8497    0.0000    0.0000 C   0  0  0  0  0  0  0  0  0  0  0  0
    6.0622    0.7000    0.0000 C   0  0  0  0  0  0  0  0  0  0  0  0
    7.2746    0.0000    0.0000 C   0  0  0  0  0  0  0  0  0  0  0  0
    8.4870    0.7000    0.0000 C   0  0  0  0  0  0  0  0  0  0  0  0
    9.6995    0.0000    0.0000 N   0  0  0  0  0  0  0  0  0  0  0  0
  1  2  1  0  0  0  0
  2  3  1  0  0  0  0
  3  4  1  0  0  0  0
  4  5  1  0  0  0  0
  5  6  1  0  0  0  0
  6  7  1  0  0  0  0
  7  8  1  0  0  0  0
  8  9  1  0  0  0  0
M  END
> <Molecule Name>
302

> <CDD Number>
CDD-16179

> <Human_sEH_IC50_uM>
500.0

> <Mouse_sEH_IC50_uM>
500.0

$$$$

SketchEl molfile

  7  6  0  0  0  0  0  0  0  0999 V2000
    0.0000    0.0000    0.0000 C   0  0  0  0  0  0  0  0  0  0  0  0
    1.2124    0.7000    0.0000 C   0  0  0  0  0  0  0  0  0  0  0  0
    2.4249    0.0000    0.0000 C   0  0  0  0  0  0  0  0  0  0  0  0
    3.6373    0.7000    0.0000 C   0  0  0  0  0  0  0  0  0  0  0  0
    4.8497    0.0000    0.0000 C   0  0  0  0  0  0  0  0  0  0  0  0
    6.0622    0.7000    0.0000 C   0  0  0  0  0  0  0  0  0  0  0  0
    7.2746    0.0000    0.0000 N   0  0  0  0  0  0  0  0  0  0  0  0
  1  2  1  0  0  0  0
  2  3  1  0  0  0  0
  3  4  1  0  0  0  0
  4  5  1  0  0  0  0
  5  6  1  0  0  0  0
  6  7  1  0  0  0  0
M  END
> <Molecule Name>
301

> <CDD Number>
CDD-16178

> <Human_sEH_IC50_uM>
500.0

> <Mouse_sEH_IC50_uM>
500.0

$$$$

SketchEl molfile

 11 11  0  0  0  0  0  0  0  0999 V2000
    0.0000    2.1000    0.0000 C   0  0  0  0  0  0  0  0  0  0  0  0
    0.0000    0.7000    0.0000 C   0  0  0  0  0  0  0  0  0  0  0  0
    1.2124    0.0000    0.0000 C   0  0  0  0  0  0  0  0  0  0  0  0
    2.4249    0.7000    0.0000 C   0  0  0  0  0  0  0  0  0  0  0  0
    2.4249    2.1000    0.0000 C   0  0  0  0  0  0  0  0  0  0  0  0
    1.2124    2.8000    0.0000 C   0  0  0  0  0  0  0  0  0  0  0  0
    3.6373    0.0000    0.0000 C   0  0  0  0  0  0  0  0  0  0  0  0
    4.8497    0.7000    0.0000 C   0  0  0  0  0  0  0  0  0  0  0  0
    6.0622    0.0000    0.0000 C   0  0  0  0  0  0  0  0  0  0  0  0
    7.2746    0.7000    0.0000 C   0  0  0  0  0  0  0  0  0  0  0  0
    8.4870    0.0000    0.0000 N   0  0  0  0  0  0  0  0  0  0  0  0
  1  2  2  0  0  0  0
  2  3  1  0  0  0  0
  3  4  2  0  0  0  0
  4  5  1  0  0  0  0
  5  6  2  0  0  0  0
  6  1  1  0  0  0  0
  4  7  1  0  0  0  0
  7  8  1  0  0  0  0
  8  9  1  0  0  0  0
  9 10  1  0  0  0  0
 10 11  1  0  0  0  0
M  END
> <Molecule Name>
300

> <CDD Number>
CDD-16177

> <Human_sEH_IC50_uM>
500.0

> <Mouse_sEH_IC50_uM>
500.0

$$$$

SketchEl molfile

 20 21  0  0  0  0  0  0  0  0999 V2000
    1.2124    0.8987    0.0000 C   0  0  0  0  0  0  0  0  0  0  0  0
    2.4249    0.1987    0.0000 C   0  0  0  0  0  0  0  0  0  0  0  0
    3.6373    0.8987    0.0000 C   0  0  0  0  0  0  0  0  0  0  0  0
    3.6373    2.2987    0.0000 C   0  0  0  0  0  0  0  0  0  0  0  0
    2.4249    2.9987    0.0000 C   0  0  0  0  0  0  0  0  0  0  0  0
    1.2124    2.2987    0.0000 C   0  0  0  0  0  0  0  0  0  0  0  0
    4.8497    0.1987    0.0000 N   0  0  0  0  0  0  0  0  0  0  0  0
    5.8397    0.7993    0.0000 C   0  0  0  0  0  0  0  0  0  0  0  0
    7.0521    0.0993    0.0000 N   0  0  0  0  0  0  0  0  0  0  0  0
    5.8397    2.1993    0.0000 O   0  0  0  0  0  0  0  0  0  0  0  0
    8.0421    0.7000    0.0000 C   0  0  0  0  0  0  0  0  0  0  0  0
    0.0000    2.9987    0.0000 Cl  0  0  0  0  0  0  0  0  0  0  0  0
    9.2545    0.0000    0.0000 C   0  0  0  0  0  0  0  0  0  0  0  0
   10.4669    0.7000    0.0000 C   0  0  0  0  0  0  0  0  0  0  0  0
   10.4669    2.1000    0.0000 C   0  0  0  0  0  0  0  0  0  0  0  0
    9.2545    2.8000    0.0000 C   0  0  0  0  0  0  0  0  0  0  0  0
    8.0421    2.1000    0.0000 C   0  0  0  0  0  0  0  0  0  0  0  0
   11.6794    2.8000    0.0000 Cl  0  0  0  0  0  0  0  0  0  0  0  0
    0.0000    0.1987    0.0000 Cl  0  0  0  0  0  0  0  0  0  0  0  0
   11.6794    0.0000    0.0000 Cl  0  0  0  0  0  0  0  0  0  0  0  0
  1  2  2  0  0  0  0
  2  3  1  0  0  0  0
  3  4  2  0  0  0  0
  4  5  1  0  0  0  0
  5  6  2  0  0  0  0
  6  1  1  0  0  0  0
  3  7  1  0  0  0  0
  7  8  1  0  0  0  0
  8  9  1  0  0  0  0
  8 10  2  0  0  0  0
  9 11  1  0  0  0  0
  6 12  1  0  0  0  0
 11 13  2  0  0  0  0
 13 14  1  0  0  0  0
 14 15  2  0  0  0  0
 15 16  1  0  0  0  0
 16 17  2  0  0  0  0
 17 11  1  0  0  0  0
 15 18  1  0  0  0  0
  1 19  1  0  0  0  0
 14 20  1  0  0  0  0
M  END
> <Molecule Name>
299

> <CDD Number>
CDD-16045

> <Human_sEH_IC50_uM>
0.26

> <Mouse_sEH_IC50_uM>
0.7

$$$$

SketchEl molfile

 18 19  0  0  0  0  0  0  0  0999 V2000
    1.2124    0.8987    0.0000 C   0  0  0  0  0  0  0  0  0  0  0  0
    2.4249    0.1987    0.0000 C   0  0  0  0  0  0  0  0  0  0  0  0
    3.6373    0.8987    0.0000 C   0  0  0  0  0  0  0  0  0  0  0  0
    3.6373    2.2987    0.0000 C   0  0  0  0  0  0  0  0  0  0  0  0
    2.4249    2.9987    0.0000 C   0  0  0  0  0  0  0  0  0  0  0  0
    1.2124    2.2987    0.0000 C   0  0  0  0  0  0  0  0  0  0  0  0
    4.8497    0.1987    0.0000 N   0  0  0  0  0  0  0  0  0  0  0  0
    5.8397    0.7993    0.0000 C   0  0  0  0  0  0  0  0  0  0  0  0
    7.0521    0.0993    0.0000 N   0  0  0  0  0  0  0  0  0  0  0  0
    5.8397    2.1993    0.0000 O   0  0  0  0  0  0  0  0  0  0  0  0
    8.0421    0.7000    0.0000 C   0  0  0  0  0  0  0  0  0  0  0  0
    0.0000    2.9987    0.0000 Cl  0  0  0  0  0  0  0  0  0  0  0  0
    9.2545    0.0000    0.0000 C   0  0  0  0  0  0  0  0  0  0  0  0
   10.4669    0.7000    0.0000 C   0  0  0  0  0  0  0  0  0  0  0  0
   10.4669    2.1000    0.0000 C   0  0  0  0  0  0  0  0  0  0  0  0
    9.2545    2.8000    0.0000 C   0  0  0  0  0  0  0  0  0  0  0  0
    8.0421    2.1000    0.0000 C   0  0  0  0  0  0  0  0  0  0  0  0
   11.6794    2.8000    0.0000 Cl  0  0  0  0  0  0  0  0  0  0  0  0
  1  2  2  0  0  0  0
  2  3  1  0  0  0  0
  3  4  2  0  0  0  0
  4  5  1  0  0  0  0
  5  6  2  0  0  0  0
  6  1  1  0  0  0  0
  3  7  1  0  0  0  0
  7  8  1  0  0  0  0
  8  9  1  0  0  0  0
  8 10  2  0  0  0  0
  9 11  1  0  0  0  0
  6 12  1  0  0  0  0
 11 13  2  0  0  0  0
 13 14  1  0  0  0  0
 14 15  2  0  0  0  0
 15 16  1  0  0  0  0
 16 17  2  0  0  0  0
 17 11  1  0  0  0  0
 15 18  1  0  0  0  0
M  END
> <Molecule Name>
298

> <CDD Number>
CDD-16044

> <Human_sEH_IC50_uM>
22.0

> <Mouse_sEH_IC50_uM>
53.0

$$$$

SketchEl molfile

 22 22  0  0  0  0  0  0  0  0999 V2000
    0.0000    0.8987    0.0000 C   0  0  0  0  0  0  0  0  0  0  0  0
    1.2124    0.1987    0.0000 C   0  0  0  0  0  0  0  0  0  0  0  0
    2.4249    0.8987    0.0000 C   0  0  0  0  0  0  0  0  0  0  0  0
    2.4249    2.2987    0.0000 C   0  0  0  0  0  0  0  0  0  0  0  0
    1.2124    2.9987    0.0000 C   0  0  0  0  0  0  0  0  0  0  0  0
    0.0000    2.2987    0.0000 C   0  0  0  0  0  0  0  0  0  0  0  0
    3.6373    0.1987    0.0000 N   0  0  0  0  0  0  0  0  0  0  0  0
    4.6273    0.7993    0.0000 C   0  0  0  0  0  0  0  0  0  0  0  0
    5.8397    0.0993    0.0000 N   0  0  0  0  0  0  0  0  0  0  0  0
    4.6273    2.1993    0.0000 O   0  0  0  0  0  0  0  0  0  0  0  0
    6.8296    0.7000    0.0000 C   0  0  0  0  0  0  0  0  0  0  0  0
    8.0421    0.0000    0.0000 C   0  0  0  0  0  0  0  0  0  0  0  0
    9.2545    0.7000    0.0000 C   0  0  0  0  0  0  0  0  0  0  0  0
   10.4669    0.0000    0.0000 C   0  0  0  0  0  0  0  0  0  0  0  0
   11.6794    0.7000    0.0000 C   0  0  0  0  0  0  0  0  0  0  0  0
   12.8918    0.0000    0.0000 C   0  0  0  0  0  0  0  0  0  0  0  0
   14.1043    0.7000    0.0000 C   0  0  0  0  0  0  0  0  0  0  0  0
   15.3167    0.0000    0.0000 C   0  0  0  0  0  0  0  0  0  0  0  0
   16.5291    0.7000    0.0000 C   0  0  0  0  0  0  0  0  0  0  0  0
   17.7416    0.0000    0.0000 C   0  0  0  0  0  0  0  0  0  0  0  0
   18.9540    0.7000    0.0000 C   0  0  0  0  0  0  0  0  0  0  0  0
   20.1664    0.0000    0.0000 C   0  0  0  0  0  0  0  0  0  0  0  0
  1  2  1  0  0  0  0
  2  3  1  0  0  0  0
  3  4  1  0  0  0  0
  4  5  1  0  0  0  0
  5  6  1  0  0  0  0
  6  1  1  0  0  0  0
  3  7  1  0  0  0  0
  7  8  1  0  0  0  0
  8  9  1  0  0  0  0
  8 10  2  0  0  0  0
  9 11  1  0  0  0  0
 11 12  1  0  0  0  0
 12 13  1  0  0  0  0
 13 14  1  0  0  0  0
 14 15  1  0  0  0  0
 15 16  1  0  0  0  0
 16 17  1  0  0  0  0
 17 18  1  0  0  0  0
 18 19  1  0  0  0  0
 19 20  1  0  0  0  0
 20 21  1  0  0  0  0
 21 22  1  0  0  0  0
M  END
> <Molecule Name>
297

> <CDD Number>
CDD-15930

> <Human_sEH_IC50_uM>
0.1

> <Mouse_sEH_IC50_uM>
0.05

$$$$

SketchEl molfile

 22 22  0  0  0  0  0  0  0  0999 V2000
    0.0000    0.7000    0.0000 C   0  0  0  0  0  0  0  0  0  0  0  0
    1.2124    0.0000    0.0000 C   0  0  0  0  0  0  0  0  0  0  0  0
    2.4249    0.7000    0.0000 C   0  0  0  0  0  0  0  0  0  0  0  0
    2.4249    2.1000    0.0000 C   0  0  0  0  0  0  0  0  0  0  0  0
    1.2124    2.8000    0.0000 C   0  0  0  0  0  0  0  0  0  0  0  0
    0.0000    2.1000    0.0000 C   0  0  0  0  0  0  0  0  0  0  0  0
    3.6373    0.0000    0.0000 N   0  0  0  0  0  0  0  0  0  0  0  0
    4.8497    0.7000    0.0000 C   0  0  0  0  0  0  0  0  0  0  0  0
    6.0622    0.0000    0.0000 O   0  0  0  0  0  0  0  0  0  0  0  0
    4.8497    2.1000    0.0000 O   0  0  0  0  0  0  0  0  0  0  0  0
    7.2746    0.7000    0.0000 C   0  0  0  0  0  0  0  0  0  0  0  0
    8.4870    0.0000    0.0000 C   0  0  0  0  0  0  0  0  0  0  0  0
    9.6995    0.7000    0.0000 C   0  0  0  0  0  0  0  0  0  0  0  0
   10.9119    0.0000    0.0000 C   0  0  0  0  0  0  0  0  0  0  0  0
   12.1244    0.7000    0.0000 C   0  0  0  0  0  0  0  0  0  0  0  0
   13.3368    0.0000    0.0000 C   0  0  0  0  0  0  0  0  0  0  0  0
   14.5492    0.7000    0.0000 C   0  0  0  0  0  0  0  0  0  0  0  0
   15.7617    0.0000    0.0000 C   0  0  0  0  0  0  0  0  0  0  0  0
   16.9741    0.7000    0.0000 C   0  0  0  0  0  0  0  0  0  0  0  0
   18.1865    0.0000    0.0000 C   0  0  0  0  0  0  0  0  0  0  0  0
   19.3990    0.7000    0.0000 C   0  0  0  0  0  0  0  0  0  0  0  0
   20.6114    0.0000    0.0000 C   0  0  0  0  0  0  0  0  0  0  0  0
  1  2  1  0  0  0  0
  2  3  1  0  0  0  0
  3  4  1  0  0  0  0
  4  5  1  0  0  0  0
  5  6  1  0  0  0  0
  6  1  1  0  0  0  0
  3  7  1  0  0  0  0
  7  8  1  0  0  0  0
  8  9  1  0  0  0  0
  8 10  2  0  0  0  0
  9 11  1  0  0  0  0
 11 12  1  0  0  0  0
 12 13  1  0  0  0  0
 13 14  1  0  0  0  0
 14 15  1  0  0  0  0
 15 16  1  0  0  0  0
 16 17  1  0  0  0  0
 17 18  1  0  0  0  0
 18 19  1  0  0  0  0
 19 20  1  0  0  0  0
 20 21  1  0  0  0  0
 21 22  1  0  0  0  0
M  END
> <Molecule Name>
296

> <CDD Number>
CDD-16082

> <Human_sEH_IC50_uM>
50.6

> <Mouse_sEH_IC50_uM>
33.3

$$$$

SketchEl molfile

 17 18  0  0  0  0  0  0  0  0999 V2000
    2.4249    2.1000    0.0000 C   0  0  0  0  0  0  0  0  0  0  0  0
    3.6373    1.4000    0.0000 N   0  0  0  0  0  0  0  0  0  0  0  0
    4.8497    2.1000    0.0000 C   0  0  0  0  0  0  0  0  0  0  0  0
    6.0622    1.4000    0.0000 N   0  0  0  0  0  0  0  0  0  0  0  0
    4.8497    3.5000    0.0000 O   0  0  0  0  0  0  0  0  0  0  0  0
    7.0521    2.0007    0.0000 C   0  0  0  0  0  0  0  0  0  0  0  0
    2.4249    3.5000    0.0000 C   0  0  0  0  0  0  0  0  0  0  0  0
    1.2124    4.2000    0.0000 C   0  0  0  0  0  0  0  0  0  0  0  0
    0.0000    3.5000    0.0000 C   0  0  0  0  0  0  0  0  0  0  0  0
    0.0000    2.1000    0.0000 C   0  0  0  0  0  0  0  0  0  0  0  0
    1.2124    1.4000    0.0000 C   0  0  0  0  0  0  0  0  0  0  0  0
    8.2646    1.3007    0.0000 C   0  0  0  0  0  0  0  0  0  0  0  0
    9.4770    2.0007    0.0000 C   0  0  0  0  0  0  0  0  0  0  0  0
    9.4770    3.4007    0.0000 C   0  0  0  0  0  0  0  0  0  0  0  0
    8.2646    4.1007    0.0000 C   0  0  0  0  0  0  0  0  0  0  0  0
    7.0521    3.4007    0.0000 C   0  0  0  0  0  0  0  0  0  0  0  0
    6.0622    0.0000    0.0000 C   0  0  0  0  0  0  0  0  0  0  0  0
  1  2  1  0  0  0  0
  2  3  1  0  0  0  0
  3  4  1  0  0  0  0
  3  5  2  0  0  0  0
  4  6  1  0  0  0  0
  1  7  2  0  0  0  0
  7  8  1  0  0  0  0
  8  9  2  0  0  0  0
  9 10  1  0  0  0  0
 10 11  2  0  0  0  0
 11  1  1  0  0  0  0
  6 12  2  0  0  0  0
 12 13  1  0  0  0  0
 13 14  2  0  0  0  0
 14 15  1  0  0  0  0
 15 16  2  0  0  0  0
 16  6  1  0  0  0  0
  4 17  1  0  0  0  0
M  END
> <Molecule Name>
294

> <CDD Number>
CDD-16004

> <Human_sEH_IC50_uM>
129.0

> <Mouse_sEH_IC50_uM>
194.0

$$$$

SketchEl molfile

 19 19  0  0  0  0  0  0  0  0999 V2000
    2.5647    0.8987    0.0000 C   0  0  0  0  0  0  0  0  0  0  0  0
    3.7772    0.1987    0.0000 C   0  0  0  0  0  0  0  0  0  0  0  0
    4.9896    0.8987    0.0000 C   0  0  0  0  0  0  0  0  0  0  0  0
    4.9896    2.2987    0.0000 C   0  0  0  0  0  0  0  0  0  0  0  0
    3.7772    2.9987    0.0000 C   0  0  0  0  0  0  0  0  0  0  0  0
    2.5647    2.2987    0.0000 C   0  0  0  0  0  0  0  0  0  0  0  0
    1.3523    2.9987    0.0000 C   0  0  0  0  0  0  0  0  0  0  0  0
    0.9899    4.3510    0.0000 C   0  0  0  0  0  0  0  0  0  0  0  0
    0.0000    2.6363    0.0000 C   0  0  0  0  0  0  0  0  0  0  0  0
    6.2020    0.1987    0.0000 N   0  0  0  0  0  0  0  0  0  0  0  0
    7.1920    0.7993    0.0000 C   0  0  0  0  0  0  0  0  0  0  0  0
    8.4044    0.0993    0.0000 N   0  0  0  0  0  0  0  0  0  0  0  0
    7.1920    2.1993    0.0000 O   0  0  0  0  0  0  0  0  0  0  0  0
    9.3944    0.7000    0.0000 C   0  0  0  0  0  0  0  0  0  0  0  0
   10.6068    0.0000    0.0000 C   0  0  0  0  0  0  0  0  0  0  0  0
   11.8192    0.7000    0.0000 C   0  0  0  0  0  0  0  0  0  0  0  0
   13.0317    0.0000    0.0000 C   0  0  0  0  0  0  0  0  0  0  0  0
   14.2441    0.7000    0.0000 C   0  0  0  0  0  0  0  0  0  0  0  0
   15.4566    0.0000    0.0000 C   0  0  0  0  0  0  0  0  0  0  0  0
  1  2  2  0  0  0  0
  2  3  1  0  0  0  0
  3  4  2  0  0  0  0
  4  5  1  0  0  0  0
  5  6  2  0  0  0  0
  6  1  1  0  0  0  0
  6  7  1  0  0  0  0
  7  8  1  0  0  0  0
  7  9  1  0  0  0  0
  3 10  1  0  0  0  0
 10 11  1  0  0  0  0
 11 12  1  0  0  0  0
 11 13  2  0  0  0  0
 12 14  1  0  0  0  0
 14 15  1  0  0  0  0
 15 16  1  0  0  0  0
 16 17  1  0  0  0  0
 17 18  1  0  0  0  0
 18 19  1  0  0  0  0
M  END
> <Molecule Name>
287

> <CDD Number>
CDD-16031

> <Human_sEH_IC50_uM>
0.1

> <Mouse_sEH_IC50_uM>
0.09

$$$$

SketchEl molfile

 16 16  0  0  0  0  0  0  0  0999 V2000
    0.0000    0.8987    0.0000 C   0  0  0  0  0  0  0  0  0  0  0  0
    1.2124    0.1987    0.0000 C   0  0  0  0  0  0  0  0  0  0  0  0
    2.4249    0.8987    0.0000 C   0  0  0  0  0  0  0  0  0  0  0  0
    2.4249    2.2987    0.0000 C   0  0  0  0  0  0  0  0  0  0  0  0
    1.2124    2.9987    0.0000 C   0  0  0  0  0  0  0  0  0  0  0  0
    0.0000    2.2987    0.0000 C   0  0  0  0  0  0  0  0  0  0  0  0
    3.6373    0.1987    0.0000 N   0  0  0  0  0  0  0  0  0  0  0  0
    4.6273    0.7993    0.0000 C   0  0  0  0  0  0  0  0  0  0  0  0
    5.8397    0.0993    0.0000 N   0  0  0  0  0  0  0  0  0  0  0  0
    4.6273    2.1993    0.0000 O   0  0  0  0  0  0  0  0  0  0  0  0
    6.8296    0.7000    0.0000 C   0  0  0  0  0  0  0  0  0  0  0  0
    8.0421    0.0000    0.0000 C   0  0  0  0  0  0  0  0  0  0  0  0
    9.2545    0.7000    0.0000 C   0  0  0  0  0  0  0  0  0  0  0  0
   10.4669    0.0000    0.0000 C   0  0  0  0  0  0  0  0  0  0  0  0
   11.6794    0.7000    0.0000 C   0  0  0  0  0  0  0  0  0  0  0  0
   12.8918    0.0000    0.0000 C   0  0  0  0  0  0  0  0  0  0  0  0
  1  2  1  0  0  0  0
  2  3  1  0  0  0  0
  3  4  1  0  0  0  0
  4  5  1  0  0  0  0
  5  6  1  0  0  0  0
  6  1  1  0  0  0  0
  3  7  1  0  0  0  0
  7  8  1  0  0  0  0
  8  9  1  0  0  0  0
  8 10  2  0  0  0  0
  9 11  1  0  0  0  0
 11 12  1  0  0  0  0
 12 13  1  0  0  0  0
 13 14  1  0  0  0  0
 14 15  1  0  0  0  0
 15 16  1  0  0  0  0
M  END
> <Molecule Name>
286

> <CDD Number>
CDD-15918

> <Human_sEH_IC50_uM>
0.07

> <Mouse_sEH_IC50_uM>
0.11

$$$$

SketchEl molfile

 24 26  0  0  0  0  0  0  0  0999 V2000
    6.3985    2.1992    0.0000 N   0  0  0  0  0  0  0  0  0  0  0  0
    7.6109    2.8992    0.0000 C   0  0  0  0  0  0  0  0  0  0  0  0
    8.8233    2.1992    0.0000 N   0  0  0  0  0  0  0  0  0  0  0  0
    7.6109    4.2992    0.0000 O   0  0  0  0  0  0  0  0  0  0  0  0
    9.8133    2.7999    0.0000 O   0  0  0  0  0  0  0  0  0  0  0  0
    4.8497    2.8992    0.0000 C   0  0  0  0  0  0  0  0  0  0  0  0
    4.8497    4.2992    0.0000 C   0  0  0  0  0  0  0  0  0  0  0  0
    3.6373    4.9992    0.0000 C   0  0  0  0  0  0  0  0  0  0  0  0
    2.4249    4.2992    0.0000 C   0  0  0  0  0  0  0  0  0  0  0  0
    2.4249    2.8992    0.0000 C   0  0  0  0  0  0  0  0  0  0  0  0
    3.6373    2.1992    0.0000 C   0  0  0  0  0  0  0  0  0  0  0  0
    1.2124    4.9992    0.0000 C   0  0  0  0  0  0  0  0  0  0  0  0
    0.0000    4.2992    0.0000 C   0  0  0  0  0  0  0  0  0  0  0  0
    0.0000    2.8992    0.0000 C   0  0  0  0  0  0  0  0  0  0  0  0
    1.2124    2.1992    0.0000 C   0  0  0  0  0  0  0  0  0  0  0  0
   11.0257    2.0999    0.0000 C   0  0  0  0  0  0  0  0  0  0  0  0
   12.2381    2.8000    0.0000 C   0  0  0  0  0  0  0  0  0  0  0  0
   11.0257    0.6999    0.0000 O   0  0  0  0  0  0  0  0  0  0  0  0
   13.4505    2.1000    0.0000 C   0  0  0  0  0  0  0  0  0  0  0  0
   13.4505    0.7000    0.0000 C   0  0  0  0  0  0  0  0  0  0  0  0
   14.6630    0.0000    0.0000 C   0  0  0  0  0  0  0  0  0  0  0  0
   15.8754    0.7000    0.0000 C   0  0  0  0  0  0  0  0  0  0  0  0
   15.8754    2.1000    0.0000 C   0  0  0  0  0  0  0  0  0  0  0  0
   14.6630    2.8000    0.0000 C   0  0  0  0  0  0  0  0  0  0  0  0
  1  2  1  0  0  0  0
  2  3  1  0  0  0  0
  2  4  2  0  0  0  0
  3  5  1  0  0  0  0
  1  6  1  0  0  0  0
  6  7  2  0  0  0  0
  7  8  1  0  0  0  0
  8  9  2  0  0  0  0
  9 10  1  0  0  0  0
 10 11  2  0  0  0  0
 11  6  1  0  0  0  0
  9 12  1  0  0  0  0
 12 13  2  0  0  0  0
 13 14  1  0  0  0  0
 14 15  2  0  0  0  0
 15 10  1  0  0  0  0
  5 16  1  0  0  0  0
 16 17  1  0  0  0  0
 16 18  2  0  0  0  0
 17 19  1  0  0  0  0
 19 20  2  0  0  0  0
 20 21  1  0  0  0  0
 21 22  2  0  0  0  0
 22 23  1  0  0  0  0
 23 24  2  0  0  0  0
 24 19  1  0  0  0  0
M  END
> <Molecule Name>
285

> <CDD Number>
CDD-16062

> <Human_sEH_IC50_uM>
50.0

> <Mouse_sEH_IC50_uM>
50.0

$$$$

SketchEl molfile

 24 25  0  0  0  0  0  0  0  0999 V2000
    6.3985    1.4993    0.0000 N   0  0  0  0  0  0  0  0  0  0  0  0
    7.6109    2.1993    0.0000 C   0  0  0  0  0  0  0  0  0  0  0  0
    8.8233    1.4993    0.0000 N   0  0  0  0  0  0  0  0  0  0  0  0
    7.6109    3.5993    0.0000 O   0  0  0  0  0  0  0  0  0  0  0  0
    9.8133    2.1000    0.0000 C   0  0  0  0  0  0  0  0  0  0  0  0
    4.8497    2.1993    0.0000 C   0  0  0  0  0  0  0  0  0  0  0  0
    4.8497    3.5993    0.0000 C   0  0  0  0  0  0  0  0  0  0  0  0
    3.6373    4.2993    0.0000 C   0  0  0  0  0  0  0  0  0  0  0  0
    2.4249    3.5993    0.0000 C   0  0  0  0  0  0  0  0  0  0  0  0
    2.4249    2.1993    0.0000 C   0  0  0  0  0  0  0  0  0  0  0  0
    3.6373    1.4993    0.0000 C   0  0  0  0  0  0  0  0  0  0  0  0
    1.2124    4.2993    0.0000 C   0  0  0  0  0  0  0  0  0  0  0  0
    0.0000    3.5993    0.0000 C   0  0  0  0  0  0  0  0  0  0  0  0
    0.0000    2.1993    0.0000 C   0  0  0  0  0  0  0  0  0  0  0  0
    1.2124    1.4993    0.0000 C   0  0  0  0  0  0  0  0  0  0  0  0
   11.0257    1.4000    0.0000 C   0  0  0  0  0  0  0  0  0  0  0  0
   12.2382    2.1000    0.0000 C   0  0  0  0  0  0  0  0  0  0  0  0
   13.4506    1.4000    0.0000 C   0  0  0  0  0  0  0  0  0  0  0  0
   14.6630    2.1000    0.0000 C   0  0  0  0  0  0  0  0  0  0  0  0
   15.8755    1.4000    0.0000 C   0  0  0  0  0  0  0  0  0  0  0  0
   17.0879    2.1000    0.0000 C   0  0  0  0  0  0  0  0  0  0  0  0
   18.3003    1.4000    0.0000 C   0  0  0  0  0  0  0  0  0  0  0  0
   19.5128    2.1000    0.0000 O   0  0  0  0  0  0  0  0  0  0  0  0
   18.3003    0.0000    0.0000 O   0  0  0  0  0  0  0  0  0  0  0  0
  1  2  1  0  0  0  0
  2  3  1  0  0  0  0
  2  4  2  0  0  0  0
  3  5  1  0  0  0  0
  1  6  1  0  0  0  0
  6  7  2  0  0  0  0
  7  8  1  0  0  0  0
  8  9  2  0  0  0  0
  9 10  1  0  0  0  0
 10 11  2  0  0  0  0
 11  6  1  0  0  0  0
  9 12  1  0  0  0  0
 12 13  2  0  0  0  0
 13 14  1  0  0  0  0
 14 15  2  0  0  0  0
 15 10  1  0  0  0  0
  5 16  1  0  0  0  0
 16 17  1  0  0  0  0
 17 18  1  0  0  0  0
 18 19  1  0  0  0  0
 19 20  1  0  0  0  0
 20 21  1  0  0  0  0
 21 22  1  0  0  0  0
 22 23  1  0  0  0  0
 22 24  2  0  0  0  0
M  END
> <Molecule Name>
284

> <CDD Number>
CDD-16060

> <Human_sEH_IC50_uM>
37.0

> <Mouse_sEH_IC50_uM>
13.0

$$$$

SketchEl molfile

 28 29  0  0  0  0  0  0  0  0999 V2000
    6.3985    1.4993    0.0000 N   0  0  0  0  0  0  0  0  0  0  0  0
    7.6109    2.1993    0.0000 C   0  0  0  0  0  0  0  0  0  0  0  0
    8.8233    1.4993    0.0000 N   0  0  0  0  0  0  0  0  0  0  0  0
    7.6109    3.5993    0.0000 O   0  0  0  0  0  0  0  0  0  0  0  0
    9.8133    2.1000    0.0000 C   0  0  0  0  0  0  0  0  0  0  0  0
    4.8497    2.1993    0.0000 C   0  0  0  0  0  0  0  0  0  0  0  0
    4.8497    3.5993    0.0000 C   0  0  0  0  0  0  0  0  0  0  0  0
    3.6373    4.2993    0.0000 C   0  0  0  0  0  0  0  0  0  0  0  0
    2.4249    3.5993    0.0000 C   0  0  0  0  0  0  0  0  0  0  0  0
    2.4249    2.1993    0.0000 C   0  0  0  0  0  0  0  0  0  0  0  0
    3.6373    1.4993    0.0000 C   0  0  0  0  0  0  0  0  0  0  0  0
    1.2124    4.2993    0.0000 C   0  0  0  0  0  0  0  0  0  0  0  0
    0.0000    3.5993    0.0000 C   0  0  0  0  0  0  0  0  0  0  0  0
    0.0000    2.1993    0.0000 C   0  0  0  0  0  0  0  0  0  0  0  0
    1.2124    1.4993    0.0000 C   0  0  0  0  0  0  0  0  0  0  0  0
   11.0257    1.4000    0.0000 C   0  0  0  0  0  0  0  0  0  0  0  0
   12.2382    2.1000    0.0000 C   0  0  0  0  0  0  0  0  0  0  0  0
   13.4506    1.4000    0.0000 C   0  0  0  0  0  0  0  0  0  0  0  0
   14.6630    2.1000    0.0000 C   0  0  0  0  0  0  0  0  0  0  0  0
   15.8755    1.4000    0.0000 C   0  0  0  0  0  0  0  0  0  0  0  0
   17.0879    2.1000    0.0000 C   0  0  0  0  0  0  0  0  0  0  0  0
   18.3003    1.4000    0.0000 C   0  0  0  0  0  0  0  0  0  0  0  0
   19.5128    2.1000    0.0000 C   0  0  0  0  0  0  0  0  0  0  0  0
   20.7252    1.4000    0.0000 C   0  0  0  0  0  0  0  0  0  0  0  0
   21.9376    2.1000    0.0000 C   0  0  0  0  0  0  0  0  0  0  0  0
   23.1501    1.4000    0.0000 C   0  0  0  0  0  0  0  0  0  0  0  0
   24.3625    2.1000    0.0000 O   0  0  0  0  0  0  0  0  0  0  0  0
   23.1501    0.0000    0.0000 O   0  0  0  0  0  0  0  0  0  0  0  0
  1  2  1  0  0  0  0
  2  3  1  0  0  0  0
  2  4  2  0  0  0  0
  3  5  1  0  0  0  0
  1  6  1  0  0  0  0
  6  7  2  0  0  0  0
  7  8  1  0  0  0  0
  8  9  2  0  0  0  0
  9 10  1  0  0  0  0
 10 11  2  0  0  0  0
 11  6  1  0  0  0  0
  9 12  1  0  0  0  0
 12 13  2  0  0  0  0
 13 14  1  0  0  0  0
 14 15  2  0  0  0  0
 15 10  1  0  0  0  0
  5 16  1  0  0  0  0
 16 17  1  0  0  0  0
 17 18  1  0  0  0  0
 18 19  1  0  0  0  0
 19 20  1  0  0  0  0
 20 21  1  0  0  0  0
 21 22  1  0  0  0  0
 22 23  1  0  0  0  0
 23 24  1  0  0  0  0
 24 25  1  0  0  0  0
 25 26  1  0  0  0  0
 26 27  1  0  0  0  0
 26 28  2  0  0  0  0
M  END
> <Molecule Name>
283

> <CDD Number>
CDD-16061

> <Human_sEH_IC50_uM>
1.12

> <Mouse_sEH_IC50_uM>
0.7

$$$$

SketchEl molfile

 21 22  0  0  0  0  0  0  0  0999 V2000
    6.3985    0.0993    0.0000 N   0  0  0  0  0  0  0  0  0  0  0  0
    7.6109    0.7993    0.0000 C   0  0  0  0  0  0  0  0  0  0  0  0
    8.8233    0.0993    0.0000 N   0  0  0  0  0  0  0  0  0  0  0  0
    7.6109    2.1993    0.0000 O   0  0  0  0  0  0  0  0  0  0  0  0
    9.8133    0.7000    0.0000 C   0  0  0  0  0  0  0  0  0  0  0  0
    4.8497    0.7993    0.0000 C   0  0  0  0  0  0  0  0  0  0  0  0
    4.8497    2.1993    0.0000 C   0  0  0  0  0  0  0  0  0  0  0  0
    3.6373    2.8993    0.0000 C   0  0  0  0  0  0  0  0  0  0  0  0
    2.4249    2.1993    0.0000 C   0  0  0  0  0  0  0  0  0  0  0  0
    2.4249    0.7993    0.0000 C   0  0  0  0  0  0  0  0  0  0  0  0
    3.6373    0.0993    0.0000 C   0  0  0  0  0  0  0  0  0  0  0  0
    1.2124    2.8993    0.0000 C   0  0  0  0  0  0  0  0  0  0  0  0
    0.0000    2.1993    0.0000 C   0  0  0  0  0  0  0  0  0  0  0  0
    0.0000    0.7993    0.0000 C   0  0  0  0  0  0  0  0  0  0  0  0
    1.2124    0.0993    0.0000 C   0  0  0  0  0  0  0  0  0  0  0  0
   11.0257    0.0000    0.0000 C   0  0  0  0  0  0  0  0  0  0  0  0
   12.2382    0.7000    0.0000 C   0  0  0  0  0  0  0  0  0  0  0  0
   13.4506    0.0000    0.0000 C   0  0  0  0  0  0  0  0  0  0  0  0
   14.6630    0.7000    0.0000 C   0  0  0  0  0  0  0  0  0  0  0  0
   15.8755    0.0000    0.0000 O   0  0  0  0  0  0  0  0  0  0  0  0
   14.6630    2.1000    0.0000 O   0  0  0  0  0  0  0  0  0  0  0  0
  1  2  1  0  0  0  0
  2  3  1  0  0  0  0
  2  4  2  0  0  0  0
  3  5  1  0  0  0  0
  1  6  1  0  0  0  0
  6  7  2  0  0  0  0
  7  8  1  0  0  0  0
  8  9  2  0  0  0  0
  9 10  1  0  0  0  0
 10 11  2  0  0  0  0
 11  6  1  0  0  0  0
  9 12  1  0  0  0  0
 12 13  2  0  0  0  0
 13 14  1  0  0  0  0
 14 15  2  0  0  0  0
 15 10  1  0  0  0  0
  5 16  1  0  0  0  0
 16 17  1  0  0  0  0
 17 18  1  0  0  0  0
 18 19  1  0  0  0  0
 19 20  1  0  0  0  0
 19 21  2  0  0  0  0
M  END
> <Molecule Name>
282

> <CDD Number>
CDD-16059

> <Human_sEH_IC50_uM>
500.0

> <Mouse_sEH_IC50_uM>
500.0

$$$$

SketchEl molfile

 22 23  0  0  0  0  0  0  0  0999 V2000
    6.3985    2.1993    0.0000 N   0  0  0  0  0  0  0  0  0  0  0  0
    7.6109    2.8993    0.0000 C   0  0  0  0  0  0  0  0  0  0  0  0
    8.8233    2.1993    0.0000 N   0  0  0  0  0  0  0  0  0  0  0  0
    7.6109    4.2993    0.0000 O   0  0  0  0  0  0  0  0  0  0  0  0
    9.8133    2.8000    0.0000 C   0  0  0  0  0  0  0  0  0  0  0  0
    4.8497    2.8993    0.0000 C   0  0  0  0  0  0  0  0  0  0  0  0
    4.8497    4.2993    0.0000 C   0  0  0  0  0  0  0  0  0  0  0  0
    3.6373    4.9993    0.0000 C   0  0  0  0  0  0  0  0  0  0  0  0
    2.4249    4.2993    0.0000 C   0  0  0  0  0  0  0  0  0  0  0  0
    2.4249    2.8993    0.0000 C   0  0  0  0  0  0  0  0  0  0  0  0
    3.6373    2.1993    0.0000 C   0  0  0  0  0  0  0  0  0  0  0  0
    1.2124    4.9993    0.0000 C   0  0  0  0  0  0  0  0  0  0  0  0
    0.0000    4.2993    0.0000 C   0  0  0  0  0  0  0  0  0  0  0  0
    0.0000    2.8993    0.0000 C   0  0  0  0  0  0  0  0  0  0  0  0
    1.2124    2.1993    0.0000 C   0  0  0  0  0  0  0  0  0  0  0  0
   11.0257    2.1000    0.0000 C   0  0  0  0  0  0  0  0  0  0  0  0
   12.2382    2.8000    0.0000 O   0  0  0  0  0  0  0  0  0  0  0  0
   13.4506    2.1000    0.0000 C   0  0  0  0  0  0  0  0  0  0  0  0
   11.0257    0.7000    0.0000 O   0  0  0  0  0  0  0  0  0  0  0  0
   12.2382    0.0000    0.0000 C   0  0  0  0  0  0  0  0  0  0  0  0
   13.4506    0.7000    0.0000 C   0  0  0  0  0  0  0  0  0  0  0  0
   14.6630    2.8000    0.0000 C   0  0  0  0  0  0  0  0  0  0  0  0
  1  2  1  0  0  0  0
  2  3  1  0  0  0  0
  2  4  2  0  0  0  0
  3  5  1  0  0  0  0
  1  6  1  0  0  0  0
  6  7  2  0  0  0  0
  7  8  1  0  0  0  0
  8  9  2  0  0  0  0
  9 10  1  0  0  0  0
 10 11  2  0  0  0  0
 11  6  1  0  0  0  0
  9 12  1  0  0  0  0
 12 13  2  0  0  0  0
 13 14  1  0  0  0  0
 14 15  2  0  0  0  0
 15 10  1  0  0  0  0
  5 16  1  0  0  0  0
 16 17  1  0  0  0  0
 17 18  1  0  0  0  0
 16 19  1  0  0  0  0
 19 20  1  0  0  0  0
 20 21  1  0  0  0  0
 18 22  1  0  0  0  0
M  END
> <Molecule Name>
281

> <CDD Number>
CDD-16058

> <Human_sEH_IC50_uM>
50.0

> <Mouse_sEH_IC50_uM>
37.0

$$$$

SketchEl molfile

 18 19  0  0  0  0  0  0  0  0999 V2000
    6.3985    0.0993    0.0000 N   0  0  0  0  0  0  0  0  0  0  0  0
    7.6109    0.7993    0.0000 C   0  0  0  0  0  0  0  0  0  0  0  0
    8.8233    0.0993    0.0000 N   0  0  0  0  0  0  0  0  0  0  0  0
    7.6109    2.1993    0.0000 O   0  0  0  0  0  0  0  0  0  0  0  0
    9.8133    0.7000    0.0000 C   0  0  0  0  0  0  0  0  0  0  0  0
    4.8497    0.7993    0.0000 C   0  0  0  0  0  0  0  0  0  0  0  0
    4.8497    2.1993    0.0000 C   0  0  0  0  0  0  0  0  0  0  0  0
    3.6373    2.8993    0.0000 C   0  0  0  0  0  0  0  0  0  0  0  0
    2.4249    2.1993    0.0000 C   0  0  0  0  0  0  0  0  0  0  0  0
    2.4249    0.7993    0.0000 C   0  0  0  0  0  0  0  0  0  0  0  0
    3.6373    0.0993    0.0000 C   0  0  0  0  0  0  0  0  0  0  0  0
    1.2124    2.8993    0.0000 C   0  0  0  0  0  0  0  0  0  0  0  0
    0.0000    2.1993    0.0000 C   0  0  0  0  0  0  0  0  0  0  0  0
    0.0000    0.7993    0.0000 C   0  0  0  0  0  0  0  0  0  0  0  0
    1.2124    0.0993    0.0000 C   0  0  0  0  0  0  0  0  0  0  0  0
   11.0257    0.0000    0.0000 C   0  0  0  0  0  0  0  0  0  0  0  0
   12.2382    0.7000    0.0000 O   0  0  0  0  0  0  0  0  0  0  0  0
   13.4506    0.0000    0.0000 C   0  0  0  0  0  0  0  0  0  0  0  0
  1  2  1  0  0  0  0
  2  3  1  0  0  0  0
  2  4  2  0  0  0  0
  3  5  1  0  0  0  0
  1  6  1  0  0  0  0
  6  7  2  0  0  0  0
  7  8  1  0  0  0  0
  8  9  2  0  0  0  0
  9 10  1  0  0  0  0
 10 11  2  0  0  0  0
 11  6  1  0  0  0  0
  9 12  1  0  0  0  0
 12 13  2  0  0  0  0
 13 14  1  0  0  0  0
 14 15  2  0  0  0  0
 15 10  1  0  0  0  0
  5 16  1  0  0  0  0
 16 17  1  0  0  0  0
 17 18  1  0  0  0  0
M  END
> <Molecule Name>
280

> <CDD Number>
CDD-16056

> <Human_sEH_IC50_uM>
500.0

> <Mouse_sEH_IC50_uM>
500.0

$$$$

SketchEl molfile

 22 24  0  0  0  0  0  0  0  0999 V2000
    9.6995    0.7000    0.0000 C   0  0  0  0  0  0  0  0  0  0  0  0
    8.4870    0.0000    0.0000 N   0  0  0  0  0  0  0  0  0  0  0  0
    7.2746    0.7000    0.0000 C   0  0  0  0  0  0  0  0  0  0  0  0
    6.0622    0.0000    0.0000 N   0  0  0  0  0  0  0  0  0  0  0  0
    7.2746    2.1000    0.0000 O   0  0  0  0  0  0  0  0  0  0  0  0
    4.8497    0.7000    0.0000 C   0  0  0  0  0  0  0  0  0  0  0  0
   10.9119    0.0000    0.0000 C   0  0  0  0  0  0  0  0  0  0  0  0
   12.1244    0.7000    0.0000 C   0  0  0  0  0  0  0  0  0  0  0  0
   12.1244    2.1000    0.0000 C   0  0  0  0  0  0  0  0  0  0  0  0
   10.9119    2.8000    0.0000 C   0  0  0  0  0  0  0  0  0  0  0  0
    9.6995    2.1000    0.0000 C   0  0  0  0  0  0  0  0  0  0  0  0
    3.6373    0.0000    0.0000 C   0  0  0  0  0  0  0  0  0  0  0  0
   13.3368    0.0000    0.0000 C   0  0  0  0  0  0  0  0  0  0  0  0
   14.5492    0.7000    0.0000 C   0  0  0  0  0  0  0  0  0  0  0  0
   14.5492    2.1000    0.0000 C   0  0  0  0  0  0  0  0  0  0  0  0
   13.3368    2.8000    0.0000 C   0  0  0  0  0  0  0  0  0  0  0  0
    2.4249    0.7000    0.0000 C   0  0  0  0  0  0  0  0  0  0  0  0
    2.4249    2.1000    0.0000 C   0  0  0  0  0  0  0  0  0  0  0  0
    1.2124    2.8000    0.0000 C   0  0  0  0  0  0  0  0  0  0  0  0
    0.0000    2.1000    0.0000 C   0  0  0  0  0  0  0  0  0  0  0  0
    0.0000    0.7000    0.0000 C   0  0  0  0  0  0  0  0  0  0  0  0
    1.2124    0.0000    0.0000 C   0  0  0  0  0  0  0  0  0  0  0  0
  1  2  1  0  0  0  0
  2  3  1  0  0  0  0
  3  4  1  0  0  0  0
  3  5  2  0  0  0  0
  4  6  1  0  0  0  0
  1  7  2  0  0  0  0
  7  8  1  0  0  0  0
  8  9  2  0  0  0  0
  9 10  1  0  0  0  0
 10 11  2  0  0  0  0
 11  1  1  0  0  0  0
  6 12  1  0  0  0  0
  8 13  1  0  0  0  0
 13 14  2  0  0  0  0
 14 15  1  0  0  0  0
 15 16  2  0  0  0  0
 16  9  1  0  0  0  0
 12 17  1  0  0  0  0
 17 18  1  0  0  0  0
 18 19  1  0  0  0  0
 19 20  1  0  0  0  0
 20 21  1  0  0  0  0
 21 22  1  0  0  0  0
 22 17  1  0  0  0  0
M  END
> <Molecule Name>
279

> <CDD Number>
CDD-15979

> <Human_sEH_IC50_uM>
2.5

> <Mouse_sEH_IC50_uM>
11.0

$$$$

SketchEl molfile

 22 24  0  0  0  0  0  0  0  0999 V2000
    9.6995    0.7000    0.0000 C   0  0  0  0  0  0  0  0  0  0  0  0
    8.4870    0.0000    0.0000 N   0  0  0  0  0  0  0  0  0  0  0  0
    7.2746    0.7000    0.0000 C   0  0  0  0  0  0  0  0  0  0  0  0
    6.0622    0.0000    0.0000 N   0  0  0  0  0  0  0  0  0  0  0  0
    7.2746    2.1000    0.0000 O   0  0  0  0  0  0  0  0  0  0  0  0
    4.8497    0.7000    0.0000 C   0  0  0  0  0  0  0  0  0  0  0  0
   10.9119    0.0000    0.0000 C   0  0  0  0  0  0  0  0  0  0  0  0
   12.1244    0.7000    0.0000 C   0  0  0  0  0  0  0  0  0  0  0  0
   12.1244    2.1000    0.0000 C   0  0  0  0  0  0  0  0  0  0  0  0
   10.9119    2.8000    0.0000 C   0  0  0  0  0  0  0  0  0  0  0  0
    9.6995    2.1000    0.0000 C   0  0  0  0  0  0  0  0  0  0  0  0
    3.6373    0.0000    0.0000 C   0  0  0  0  0  0  0  0  0  0  0  0
   13.3368    0.0000    0.0000 C   0  0  0  0  0  0  0  0  0  0  0  0
   14.5492    0.7000    0.0000 C   0  0  0  0  0  0  0  0  0  0  0  0
   14.5492    2.1000    0.0000 C   0  0  0  0  0  0  0  0  0  0  0  0
   13.3368    2.8000    0.0000 C   0  0  0  0  0  0  0  0  0  0  0  0
    2.4249    0.7000    0.0000 C   0  0  0  0  0  0  0  0  0  0  0  0
    2.4249    2.1000    0.0000 C   0  0  0  0  0  0  0  0  0  0  0  0
    1.2124    2.8000    0.0000 C   0  0  0  0  0  0  0  0  0  0  0  0
    0.0000    2.1000    0.0000 C   0  0  0  0  0  0  0  0  0  0  0  0
    0.0000    0.7000    0.0000 C   0  0  0  0  0  0  0  0  0  0  0  0
    1.2124    0.0000    0.0000 C   0  0  0  0  0  0  0  0  0  0  0  0
  1  2  1  0  0  0  0
  2  3  1  0  0  0  0
  3  4  1  0  0  0  0
  3  5  2  0  0  0  0
  4  6  1  0  0  0  0
  1  7  2  0  0  0  0
  7  8  1  0  0  0  0
  8  9  2  0  0  0  0
  9 10  1  0  0  0  0
 10 11  2  0  0  0  0
 11  1  1  0  0  0  0
  6 12  1  0  0  0  0
  8 13  1  0  0  0  0
 13 14  2  0  0  0  0
 14 15  1  0  0  0  0
 15 16  2  0  0  0  0
 16  9  1  0  0  0  0
 12 17  1  0  0  0  0
 17 18  1  0  0  0  0
 18 19  1  0  0  0  0
 19 20  1  0  0  0  0
 20 21  1  0  0  0  0
 21 22  1  0  0  0  0
 22 17  1  0  0  0  0
M  END
> <Molecule Name>
279

> <CDD Number>
CDD-15979

> <Human_sEH_IC50_uM>
500.0

> <Mouse_sEH_IC50_uM>
500.0

$$$$

SketchEl molfile

 15 15  0  0  0  0  0  0  0  0999 V2000
    0.0000    0.7001    0.0000 C   0  0  0  0  0  0  0  0  0  0  0  0
    1.2124    0.0001    0.0000 C   0  0  0  0  0  0  0  0  0  0  0  0
    2.4249    0.7001    0.0000 C   0  0  0  0  0  0  0  0  0  0  0  0
    2.4249    2.1001    0.0000 C   0  0  0  0  0  0  0  0  0  0  0  0
    1.2124    2.8001    0.0000 C   0  0  0  0  0  0  0  0  0  0  0  0
    0.0000    2.1001    0.0000 C   0  0  0  0  0  0  0  0  0  0  0  0
    3.6373    0.0001    0.0000 N   0  0  0  0  0  0  0  0  0  0  0  0
    4.8497    0.7001    0.0000 C   0  0  0  0  0  0  0  0  0  0  0  0
    6.0622    0.0001    0.0000 O   0  0  0  0  0  0  0  0  0  0  0  0
    4.8497    2.1001    0.0000 O   0  0  0  0  0  0  0  0  0  0  0  0
    7.2746    0.7001    0.0000 C   0  0  0  0  0  0  0  0  0  0  0  0
    8.4870    0.0000    0.0000 C   0  0  0  0  0  0  0  0  0  0  0  0
    9.6994    0.7000    0.0000 C   0  0  0  0  0  0  0  0  0  0  0  0
   10.9118    0.0000    0.0000 C   0  0  0  0  0  0  0  0  0  0  0  0
    9.6994    2.1000    0.0000 C   0  0  0  0  0  0  0  0  0  0  0  0
  1  2  1  0  0  0  0
  2  3  1  0  0  0  0
  3  4  1  0  0  0  0
  4  5  1  0  0  0  0
  5  6  1  0  0  0  0
  6  1  1  0  0  0  0
  3  7  1  0  0  0  0
  7  8  1  0  0  0  0
  8  9  1  0  0  0  0
  8 10  2  0  0  0  0
  9 11  1  0  0  0  0
 11 12  1  0  0  0  0
 12 13  1  0  0  0  0
 13 14  2  0  0  0  0
 13 15  1  0  0  0  0
M  END
> <Molecule Name>
277

> <CDD Number>
CDD-16091

> <Human_sEH_IC50_uM>
0.22

> <Mouse_sEH_IC50_uM>
0.12

$$$$

SketchEl molfile

 20 21  0  0  0  0  0  0  0  0999 V2000
    0.0000    0.7003    0.0000 C   0  0  0  0  0  0  0  0  0  0  0  0
    1.2124    0.0003    0.0000 C   0  0  0  0  0  0  0  0  0  0  0  0
    2.4249    0.7003    0.0000 C   0  0  0  0  0  0  0  0  0  0  0  0
    2.4249    2.1003    0.0000 C   0  0  0  0  0  0  0  0  0  0  0  0
    1.2124    2.8003    0.0000 C   0  0  0  0  0  0  0  0  0  0  0  0
    0.0000    2.1003    0.0000 C   0  0  0  0  0  0  0  0  0  0  0  0
    3.6373    0.0003    0.0000 N   0  0  0  0  0  0  0  0  0  0  0  0
    4.8497    0.7003    0.0000 C   0  0  0  0  0  0  0  0  0  0  0  0
    6.0622    0.0003    0.0000 O   0  0  0  0  0  0  0  0  0  0  0  0
    4.8497    2.1003    0.0000 O   0  0  0  0  0  0  0  0  0  0  0  0
    7.2746    0.7003    0.0000 C   0  0  0  0  0  0  0  0  0  0  0  0
    8.4870    0.0001    0.0000 C   0  0  0  0  0  0  0  0  0  0  0  0
    9.6995    0.7000    0.0000 C   0  0  0  0  0  0  0  0  0  0  0  0
   10.9119    0.0000    0.0000 C   0  0  0  0  0  0  0  0  0  0  0  0
   12.1244    0.7000    0.0000 C   0  0  0  0  0  0  0  0  0  0  0  0
   13.3368    0.0000    0.0000 C   0  0  0  0  0  0  0  0  0  0  0  0
   14.5492    0.7000    0.0000 C   0  0  0  0  0  0  0  0  0  0  0  0
   14.5492    2.1000    0.0000 C   0  0  0  0  0  0  0  0  0  0  0  0
   13.3368    2.8000    0.0000 C   0  0  0  0  0  0  0  0  0  0  0  0
   12.1244    2.1000    0.0000 C   0  0  0  0  0  0  0  0  0  0  0  0
  1  2  1  0  0  0  0
  2  3  1  0  0  0  0
  3  4  1  0  0  0  0
  4  5  1  0  0  0  0
  5  6  1  0  0  0  0
  6  1  1  0  0  0  0
  3  7  1  0  0  0  0
  7  8  1  0  0  0  0
  8  9  1  0  0  0  0
  8 10  2  0  0  0  0
  9 11  1  0  0  0  0
 11 12  1  0  0  0  0
 12 13  1  0  0  0  0
 13 14  1  0  0  0  0
 14 15  1  0  0  0  0
 15 16  1  0  0  0  0
 16 17  1  0  0  0  0
 17 18  1  0  0  0  0
 18 19  1  0  0  0  0
 19 20  1  0  0  0  0
 20 15  1  0  0  0  0
M  END
> <Molecule Name>
276

> <CDD Number>
CDD-16090

> <Human_sEH_IC50_uM>
0.34

> <Mouse_sEH_IC50_uM>
1.1

$$$$

SketchEl molfile

 17 18  0  0  0  0  0  0  0  0999 V2000
    0.0000    0.7000    0.0000 C   0  0  0  0  0  0  0  0  0  0  0  0
    1.2124    0.0000    0.0000 C   0  0  0  0  0  0  0  0  0  0  0  0
    2.4249    0.7000    0.0000 C   0  0  0  0  0  0  0  0  0  0  0  0
    2.4249    2.1000    0.0000 C   0  0  0  0  0  0  0  0  0  0  0  0
    1.2124    2.8000    0.0000 C   0  0  0  0  0  0  0  0  0  0  0  0
    0.0000    2.1000    0.0000 C   0  0  0  0  0  0  0  0  0  0  0  0
    3.6373    0.0000    0.0000 N   0  0  0  0  0  0  0  0  0  0  0  0
    4.8497    0.7000    0.0000 C   0  0  0  0  0  0  0  0  0  0  0  0
    6.0622    0.0000    0.0000 O   0  0  0  0  0  0  0  0  0  0  0  0
    4.8497    2.1000    0.0000 O   0  0  0  0  0  0  0  0  0  0  0  0
    7.2746    0.7000    0.0000 C   0  0  0  0  0  0  0  0  0  0  0  0
    8.4870    0.0000    0.0000 C   0  0  0  0  0  0  0  0  0  0  0  0
    9.6995    0.7000    0.0000 C   0  0  0  0  0  0  0  0  0  0  0  0
    9.6995    2.1000    0.0000 C   0  0  0  0  0  0  0  0  0  0  0  0
    8.4870    2.8000    0.0000 C   0  0  0  0  0  0  0  0  0  0  0  0
    7.2746    2.1000    0.0000 C   0  0  0  0  0  0  0  0  0  0  0  0
   10.9119    2.8000    0.0000 Cl  0  0  0  0  0  0  0  0  0  0  0  0
  1  2  1  0  0  0  0
  2  3  1  0  0  0  0
  3  4  1  0  0  0  0
  4  5  1  0  0  0  0
  5  6  1  0  0  0  0
  6  1  1  0  0  0  0
  3  7  1  0  0  0  0
  7  8  1  0  0  0  0
  8  9  1  0  0  0  0
  8 10  2  0  0  0  0
  9 11  1  0  0  0  0
 11 12  2  0  0  0  0
 12 13  1  0  0  0  0
 13 14  2  0  0  0  0
 14 15  1  0  0  0  0
 15 16  2  0  0  0  0
 16 11  1  0  0  0  0
 14 17  1  0  0  0  0
M  END
> <Molecule Name>
275

> <CDD Number>
CDD-16088

> <Human_sEH_IC50_uM>
40.0

> <Mouse_sEH_IC50_uM>
120.0

$$$$

SketchEl molfile

 17 17  0  0  0  0  0  0  0  0999 V2000
    2.4249    0.7728    0.0000 C   0  0  0  0  0  0  0  0  0  0  0  0
    3.6373    0.0728    0.0000 N   0  0  0  0  0  0  0  0  0  0  0  0
    4.8497    0.7728    0.0000 C   0  0  0  0  0  0  0  0  0  0  0  0
    6.0622    0.0728    0.0000 N   0  0  0  0  0  0  0  0  0  0  0  0
    4.8497    2.1728    0.0000 O   0  0  0  0  0  0  0  0  0  0  0  0
    7.0521    0.6734    0.0000 C   0  0  0  0  0  0  0  0  0  0  0  0
    2.4249    2.1728    0.0000 C   0  0  0  0  0  0  0  0  0  0  0  0
    1.2124    2.8728    0.0000 C   0  0  0  0  0  0  0  0  0  0  0  0
    0.0000    2.1728    0.0000 C   0  0  0  0  0  0  0  0  0  0  0  0
    0.0000    0.7728    0.0000 C   0  0  0  0  0  0  0  0  0  0  0  0
    1.2124    0.0728    0.0000 C   0  0  0  0  0  0  0  0  0  0  0  0
    8.2795    0.0000    0.0000 C   0  0  0  0  0  0  0  0  0  0  0  0
    9.4920    0.7000    0.0000 C   0  0  0  0  0  0  0  0  0  0  0  0
   10.7044    0.0000    0.0000 C   0  0  0  0  0  0  0  0  0  0  0  0
   11.9168    0.7000    0.0000 C   0  0  0  0  0  0  0  0  0  0  0  0
   13.1293    0.0000    0.0000 O   0  0  0  0  0  0  0  0  0  0  0  0
   11.9168    2.1000    0.0000 O   0  0  0  0  0  0  0  0  0  0  0  0
  1  2  1  0  0  0  0
  2  3  1  0  0  0  0
  3  4  1  0  0  0  0
  3  5  2  0  0  0  0
  4  6  1  0  0  0  0
  1  7  2  0  0  0  0
  7  8  1  0  0  0  0
  8  9  2  0  0  0  0
  9 10  1  0  0  0  0
 10 11  2  0  0  0  0
 11  1  1  0  0  0  0
  6 12  1  0  0  0  0
 12 13  1  0  0  0  0
 13 14  1  0  0  0  0
 14 15  1  0  0  0  0
 15 16  1  0  0  0  0
 15 17  2  0  0  0  0
M  END
> <Molecule Name>
274

> <CDD Number>
CDD-15999

> <Human_sEH_IC50_uM>
7.1

> <Mouse_sEH_IC50_uM>
8.0

$$$$

SketchEl molfile

 18 19  0  0  0  0  0  0  0  0999 V2000
    1.2124    4.2000    0.0000 C   0  0  0  0  0  0  0  0  0  0  0  0
    1.2124    2.8000    0.0000 C   0  0  0  0  0  0  0  0  0  0  0  0
    2.4249    2.1000    0.0000 C   0  0  0  0  0  0  0  0  0  0  0  0
    3.6373    2.8000    0.0000 C   0  0  0  0  0  0  0  0  0  0  0  0
    3.6373    4.2000    0.0000 C   0  0  0  0  0  0  0  0  0  0  0  0
    2.4249    4.9000    0.0000 C   0  0  0  0  0  0  0  0  0  0  0  0
    0.0000    4.9000    0.0000 Cl  0  0  0  0  0  0  0  0  0  0  0  0
    4.8497    2.1000    0.0000 N   0  0  0  0  0  0  0  0  0  0  0  0
    6.0622    2.8000    0.0000 C   0  0  0  0  0  0  0  0  0  0  0  0
    7.2746    2.1000    0.0000 O   0  0  0  0  0  0  0  0  0  0  0  0
    6.0622    4.2000    0.0000 O   0  0  0  0  0  0  0  0  0  0  0  0
    8.4870    2.8000    0.0000 C   0  0  0  0  0  0  0  0  0  0  0  0
    9.6995    2.1000    0.0000 C   0  0  0  0  0  0  0  0  0  0  0  0
    9.6995    0.7000    0.0000 C   0  0  0  0  0  0  0  0  0  0  0  0
   10.9119    0.0000    0.0000 C   0  0  0  0  0  0  0  0  0  0  0  0
   12.1244    0.7000    0.0000 C   0  0  0  0  0  0  0  0  0  0  0  0
   12.1244    2.1000    0.0000 C   0  0  0  0  0  0  0  0  0  0  0  0
   10.9119    2.8000    0.0000 C   0  0  0  0  0  0  0  0  0  0  0  0
  1  2  2  0  0  0  0
  2  3  1  0  0  0  0
  3  4  2  0  0  0  0
  4  5  1  0  0  0  0
  5  6  2  0  0  0  0
  6  1  1  0  0  0  0
  1  7  1  0  0  0  0
  4  8  1  0  0  0  0
  8  9  1  0  0  0  0
  9 10  1  0  0  0  0
  9 11  2  0  0  0  0
 10 12  1  0  0  0  0
 12 13  1  0  0  0  0
 13 14  2  0  0  0  0
 14 15  1  0  0  0  0
 15 16  2  0  0  0  0
 16 17  1  0  0  0  0
 17 18  2  0  0  0  0
 18 13  1  0  0  0  0
M  END
> <Molecule Name>
273

> <CDD Number>
CDD-16107

> <Human_sEH_IC50_uM>
7.0

> <Mouse_sEH_IC50_uM>
13.0

$$$$

SketchEl molfile

 18 19  0  0  0  0  0  0  0  0999 V2000
    1.2124    2.9721    0.0000 C   0  0  0  0  0  0  0  0  0  0  0  0
    2.4249    2.2721    0.0000 C   0  0  0  0  0  0  0  0  0  0  0  0
    3.6373    2.9721    0.0000 C   0  0  0  0  0  0  0  0  0  0  0  0
    3.6373    4.3721    0.0000 C   0  0  0  0  0  0  0  0  0  0  0  0
    2.4249    5.0721    0.0000 C   0  0  0  0  0  0  0  0  0  0  0  0
    1.2124    4.3721    0.0000 C   0  0  0  0  0  0  0  0  0  0  0  0
    4.8497    2.2721    0.0000 N   0  0  0  0  0  0  0  0  0  0  0  0
    5.8397    2.8728    0.0000 C   0  0  0  0  0  0  0  0  0  0  0  0
    7.0521    2.1728    0.0000 N   0  0  0  0  0  0  0  0  0  0  0  0
    5.8397    4.2728    0.0000 O   0  0  0  0  0  0  0  0  0  0  0  0
    8.0421    2.7734    0.0000 C   0  0  0  0  0  0  0  0  0  0  0  0
    0.0000    5.0721    0.0000 Cl  0  0  0  0  0  0  0  0  0  0  0  0
    9.2695    2.1000    0.0000 C   0  0  0  0  0  0  0  0  0  0  0  0
    9.2695    0.7000    0.0000 C   0  0  0  0  0  0  0  0  0  0  0  0
   10.4819    0.0000    0.0000 C   0  0  0  0  0  0  0  0  0  0  0  0
   11.6943    0.7000    0.0000 C   0  0  0  0  0  0  0  0  0  0  0  0
   11.6943    2.1000    0.0000 C   0  0  0  0  0  0  0  0  0  0  0  0
   10.4819    2.8000    0.0000 C   0  0  0  0  0  0  0  0  0  0  0  0
  1  2  2  0  0  0  0
  2  3  1  0  0  0  0
  3  4  2  0  0  0  0
  4  5  1  0  0  0  0
  5  6  2  0  0  0  0
  6  1  1  0  0  0  0
  3  7  1  0  0  0  0
  7  8  1  0  0  0  0
  8  9  1  0  0  0  0
  8 10  2  0  0  0  0
  9 11  1  0  0  0  0
  6 12  1  0  0  0  0
 11 13  1  0  0  0  0
 13 14  2  0  0  0  0
 14 15  1  0  0  0  0
 15 16  2  0  0  0  0
 16 17  1  0  0  0  0
 17 18  2  0  0  0  0
 18 13  1  0  0  0  0
M  END
> <Molecule Name>
272

> <CDD Number>
CDD-16042

> <Human_sEH_IC50_uM>
7.0

> <Mouse_sEH_IC50_uM>
13.0

$$$$

SketchEl molfile

 18 19  0  0  0  0  0  0  0  0999 V2000
    1.2124    4.2728    0.0000 C   0  0  0  0  0  0  0  0  0  0  0  0
    1.2124    2.8728    0.0000 C   0  0  0  0  0  0  0  0  0  0  0  0
    2.4249    2.1728    0.0000 C   0  0  0  0  0  0  0  0  0  0  0  0
    3.6373    2.8728    0.0000 C   0  0  0  0  0  0  0  0  0  0  0  0
    3.6373    4.2728    0.0000 C   0  0  0  0  0  0  0  0  0  0  0  0
    2.4249    4.9728    0.0000 C   0  0  0  0  0  0  0  0  0  0  0  0
    0.0000    4.9728    0.0000 Cl  0  0  0  0  0  0  0  0  0  0  0  0
    4.8497    2.1728    0.0000 O   0  0  0  0  0  0  0  0  0  0  0  0
    6.0622    2.8728    0.0000 C   0  0  0  0  0  0  0  0  0  0  0  0
    7.2746    2.1728    0.0000 N   0  0  0  0  0  0  0  0  0  0  0  0
    6.0622    4.2728    0.0000 O   0  0  0  0  0  0  0  0  0  0  0  0
    8.2646    2.7734    0.0000 C   0  0  0  0  0  0  0  0  0  0  0  0
    9.4920    2.1000    0.0000 C   0  0  0  0  0  0  0  0  0  0  0  0
    9.4920    0.7000    0.0000 C   0  0  0  0  0  0  0  0  0  0  0  0
   10.7044    0.0000    0.0000 C   0  0  0  0  0  0  0  0  0  0  0  0
   11.9168    0.7000    0.0000 C   0  0  0  0  0  0  0  0  0  0  0  0
   11.9168    2.1000    0.0000 C   0  0  0  0  0  0  0  0  0  0  0  0
   10.7044    2.8000    0.0000 C   0  0  0  0  0  0  0  0  0  0  0  0
  1  2  2  0  0  0  0
  2  3  1  0  0  0  0
  3  4  2  0  0  0  0
  4  5  1  0  0  0  0
  5  6  2  0  0  0  0
  6  1  1  0  0  0  0
  1  7  1  0  0  0  0
  4  8  1  0  0  0  0
  8  9  1  0  0  0  0
  9 10  1  0  0  0  0
  9 11  2  0  0  0  0
 10 12  1  0  0  0  0
 12 13  1  0  0  0  0
 13 14  2  0  0  0  0
 14 15  1  0  0  0  0
 15 16  2  0  0  0  0
 16 17  1  0  0  0  0
 17 18  2  0  0  0  0
 18 13  1  0  0  0  0
M  END
> <Molecule Name>
271

> <CDD Number>
CDD-16106

> <Human_sEH_IC50_uM>
121.0

> <Mouse_sEH_IC50_uM>
94.0

$$$$

SketchEl molfile

 17 18  0  0  0  0  0  0  0  0999 V2000
    7.2746    2.8000    0.0000 C   0  0  0  0  0  0  0  0  0  0  0  0
    6.0622    2.1000    0.0000 N   0  0  0  0  0  0  0  0  0  0  0  0
    4.8497    2.8000    0.0000 C   0  0  0  0  0  0  0  0  0  0  0  0
    3.6373    2.1000    0.0000 N   0  0  0  0  0  0  0  0  0  0  0  0
    4.8497    4.2000    0.0000 O   0  0  0  0  0  0  0  0  0  0  0  0
    2.4249    2.8000    0.0000 C   0  0  0  0  0  0  0  0  0  0  0  0
    2.4249    4.2000    0.0000 C   0  0  0  0  0  0  0  0  0  0  0  0
    1.2124    4.9000    0.0000 C   0  0  0  0  0  0  0  0  0  0  0  0
    0.0000    4.2000    0.0000 C   0  0  0  0  0  0  0  0  0  0  0  0
    0.0000    2.8000    0.0000 C   0  0  0  0  0  0  0  0  0  0  0  0
    1.2124    2.1000    0.0000 C   0  0  0  0  0  0  0  0  0  0  0  0
    8.4870    2.1000    0.0000 C   0  0  0  0  0  0  0  0  0  0  0  0
    8.4870    0.7000    0.0000 C   0  0  0  0  0  0  0  0  0  0  0  0
    9.6995    0.0000    0.0000 C   0  0  0  0  0  0  0  0  0  0  0  0
   10.9119    0.7000    0.0000 C   0  0  0  0  0  0  0  0  0  0  0  0
   10.9119    2.1000    0.0000 C   0  0  0  0  0  0  0  0  0  0  0  0
    9.6995    2.8000    0.0000 C   0  0  0  0  0  0  0  0  0  0  0  0
  1  2  1  0  0  0  0
  2  3  1  0  0  0  0
  3  4  1  0  0  0  0
  3  5  2  0  0  0  0
  4  6  1  0  0  0  0
  6  7  1  0  0  0  0
  7  8  1  0  0  0  0
  8  9  1  0  0  0  0
  9 10  1  0  0  0  0
 10 11  1  0  0  0  0
 11  6  1  0  0  0  0
  1 12  1  0  0  0  0
 12 13  2  0  0  0  0
 13 14  1  0  0  0  0
 14 15  2  0  0  0  0
 15 16  1  0  0  0  0
 16 17  2  0  0  0  0
 17 12  1  0  0  0  0
M  END
> <Molecule Name>
270

> <CDD Number>
CDD-15959

> <Human_sEH_IC50_uM>
1.9

> <Mouse_sEH_IC50_uM>
0.05

$$$$

SketchEl molfile

 24 25  0  0  0  0  0  0  0  0999 V2000
    5.1860    2.1728    0.0000 N   0  0  0  0  0  0  0  0  0  0  0  0
    6.3985    2.8728    0.0000 C   0  0  0  0  0  0  0  0  0  0  0  0
    7.6109    2.1728    0.0000 N   0  0  0  0  0  0  0  0  0  0  0  0
    6.3985    4.2728    0.0000 O   0  0  0  0  0  0  0  0  0  0  0  0
    8.6009    2.7734    0.0000 C   0  0  0  0  0  0  0  0  0  0  0  0
    9.8283    2.1000    0.0000 C   0  0  0  0  0  0  0  0  0  0  0  0
    8.6009    4.1734    0.0000 O   0  0  0  0  0  0  0  0  0  0  0  0
    9.8283    0.7000    0.0000 C   0  0  0  0  0  0  0  0  0  0  0  0
   11.0407    0.0000    0.0000 C   0  0  0  0  0  0  0  0  0  0  0  0
   12.2531    0.7000    0.0000 C   0  0  0  0  0  0  0  0  0  0  0  0
   12.2531    2.1000    0.0000 C   0  0  0  0  0  0  0  0  0  0  0  0
   11.0407    2.8000    0.0000 C   0  0  0  0  0  0  0  0  0  0  0  0
   11.0407    4.2000    0.0000 F   0  0  0  0  0  0  0  0  0  0  0  0
    8.6158    0.0000    0.0000 F   0  0  0  0  0  0  0  0  0  0  0  0
    3.6373    2.8728    0.0000 C   0  0  0  0  0  0  0  0  0  0  0  0
    3.6373    4.2728    0.0000 C   0  0  0  0  0  0  0  0  0  0  0  0
    2.4249    4.9728    0.0000 C   0  0  0  0  0  0  0  0  0  0  0  0
    1.2124    4.2728    0.0000 C   0  0  0  0  0  0  0  0  0  0  0  0
    1.2124    2.8728    0.0000 C   0  0  0  0  0  0  0  0  0  0  0  0
    2.4249    2.1728    0.0000 C   0  0  0  0  0  0  0  0  0  0  0  0
    0.0000    2.1728    0.0000 Cl  0  0  0  0  0  0  0  0  0  0  0  0
    2.4249    6.3728    0.0000 Cl  0  0  0  0  0  0  0  0  0  0  0  0
    0.0000    4.9728    0.0000 F   0  0  0  0  0  0  0  0  0  0  0  0
    4.8497    4.9728    0.0000 F   0  0  0  0  0  0  0  0  0  0  0  0
  1  2  1  0  0  0  0
  2  3  1  0  0  0  0
  2  4  2  0  0  0  0
  3  5  1  0  0  0  0
  5  6  1  0  0  0  0
  5  7  2  0  0  0  0
  6  8  2  0  0  0  0
  8  9  1  0  0  0  0
  9 10  2  0  0  0  0
 10 11  1  0  0  0  0
 11 12  2  0  0  0  0
 12  6  1  0  0  0  0
 12 13  1  0  0  0  0
  8 14  1  0  0  0  0
  1 15  1  0  0  0  0
 15 16  2  0  0  0  0
 16 17  1  0  0  0  0
 17 18  2  0  0  0  0
 18 19  1  0  0  0  0
 19 20  2  0  0  0  0
 20 15  1  0  0  0  0
 19 21  1  0  0  0  0
 17 22  1  0  0  0  0
 18 23  1  0  0  0  0
 16 24  1  0  0  0  0
M  END
> <Molecule Name>
269

> <CDD Number>
CDD-16071

> <Human_sEH_IC50_uM>
100.0

> <Mouse_sEH_IC50_uM>
100.0

$$$$

SketchEl molfile

 33 34  0  0  0  0  0  0  0  0999 V2000
   10.1756    2.1728    0.0000 N   0  0  0  0  0  0  0  0  0  0  0  0
   11.3881    2.8728    0.0000 C   0  0  0  0  0  0  0  0  0  0  0  0
   12.6005    2.1728    0.0000 N   0  0  0  0  0  0  0  0  0  0  0  0
   11.3881    4.2728    0.0000 O   0  0  0  0  0  0  0  0  0  0  0  0
   13.5905    2.7734    0.0000 C   0  0  0  0  0  0  0  0  0  0  0  0
   14.8179    2.1000    0.0000 C   0  0  0  0  0  0  0  0  0  0  0  0
   13.5905    4.1734    0.0000 O   0  0  0  0  0  0  0  0  0  0  0  0
   14.8179    0.7000    0.0000 C   0  0  0  0  0  0  0  0  0  0  0  0
   16.0303    0.0000    0.0000 C   0  0  0  0  0  0  0  0  0  0  0  0
   17.2427    0.7000    0.0000 C   0  0  0  0  0  0  0  0  0  0  0  0
   17.2427    2.1000    0.0000 C   0  0  0  0  0  0  0  0  0  0  0  0
   16.0303    2.8000    0.0000 C   0  0  0  0  0  0  0  0  0  0  0  0
   16.0303    4.2000    0.0000 F   0  0  0  0  0  0  0  0  0  0  0  0
   13.6054    0.0000    0.0000 F   0  0  0  0  0  0  0  0  0  0  0  0
    8.6269    2.8728    0.0000 C   0  0  0  0  0  0  0  0  0  0  0  0
    8.6269    4.2728    0.0000 C   0  0  0  0  0  0  0  0  0  0  0  0
    7.4145    4.9728    0.0000 C   0  0  0  0  0  0  0  0  0  0  0  0
    6.2020    4.2728    0.0000 C   0  0  0  0  0  0  0  0  0  0  0  0
    6.2020    2.8728    0.0000 C   0  0  0  0  0  0  0  0  0  0  0  0
    7.4145    2.1728    0.0000 C   0  0  0  0  0  0  0  0  0  0  0  0
    4.9896    2.1728    0.0000 Cl  0  0  0  0  0  0  0  0  0  0  0  0
    4.9896    4.9728    0.0000 O   0  0  0  0  0  0  0  0  0  0  0  0
    3.7772    4.2728    0.0000 C   0  0  0  0  0  0  0  0  0  0  0  0
    9.8393    4.9728    0.0000 Cl  0  0  0  0  0  0  0  0  0  0  0  0
    2.5647    4.9726    0.0000 C   0  0  0  0  0  0  0  0  0  0  0  0
    1.3523    4.2725    0.0000 C   0  0  0  0  0  0  0  0  0  0  0  0
    1.3523    2.8725    0.0000 F   0  0  0  0  0  0  0  0  0  0  0  0
    0.0000    3.9102    0.0000 F   0  0  0  0  0  0  0  0  0  0  0  0
    0.3623    5.2624    0.0000 F   0  0  0  0  0  0  0  0  0  0  0  0
    2.2023    6.3249    0.0000 F   0  0  0  0  0  0  0  0  0  0  0  0
    3.2647    6.1851    0.0000 F   0  0  0  0  0  0  0  0  0  0  0  0
    3.4148    2.9205    0.0000 F   0  0  0  0  0  0  0  0  0  0  0  0
    4.4772    3.0603    0.0000 F   0  0  0  0  0  0  0  0  0  0  0  0
  1  2  1  0  0  0  0
  2  3  1  0  0  0  0
  2  4  2  0  0  0  0
  3  5  1  0  0  0  0
  5  6  1  0  0  0  0
  5  7  2  0  0  0  0
  6  8  2  0  0  0  0
  8  9  1  0  0  0  0
  9 10  2  0  0  0  0
 10 11  1  0  0  0  0
 11 12  2  0  0  0  0
 12  6  1  0  0  0  0
 12 13  1  0  0  0  0
  8 14  1  0  0  0  0
  1 15  1  0  0  0  0
 15 16  2  0  0  0  0
 16 17  1  0  0  0  0
 17 18  2  0  0  0  0
 18 19  1  0  0  0  0
 19 20  2  0  0  0  0
 20 15  1  0  0  0  0
 19 21  1  0  0  0  0
 18 22  1  0  0  0  0
 22 23  1  0  0  0  0
 16 24  1  0  0  0  0
 23 25  1  0  0  0  0
 25 26  1  0  0  0  0
 26 27  1  0  0  0  0
 26 28  1  0  0  0  0
 26 29  1  0  0  0  0
 25 30  1  0  0  0  0
 25 31  1  0  0  0  0
 23 32  1  0  0  0  0
 23 33  1  0  0  0  0
M  END
> <Molecule Name>
268

> <CDD Number>
CDD-16070

> <Human_sEH_IC50_uM>
100.0

> <Mouse_sEH_IC50_uM>
100.0

$$$$

SketchEl molfile

 34 36  0  0  0  0  0  0  0  0999 V2000
   11.2482    2.1728    0.0000 N   0  0  0  0  0  0  0  0  0  0  0  0
   12.4606    2.8728    0.0000 C   0  0  0  0  0  0  0  0  0  0  0  0
   13.6731    2.1728    0.0000 N   0  0  0  0  0  0  0  0  0  0  0  0
   12.4606    4.2728    0.0000 O   0  0  0  0  0  0  0  0  0  0  0  0
   14.6630    2.7734    0.0000 C   0  0  0  0  0  0  0  0  0  0  0  0
   15.8904    2.1000    0.0000 C   0  0  0  0  0  0  0  0  0  0  0  0
   14.6630    4.1734    0.0000 O   0  0  0  0  0  0  0  0  0  0  0  0
   15.8904    0.7000    0.0000 C   0  0  0  0  0  0  0  0  0  0  0  0
   17.1029    0.0000    0.0000 C   0  0  0  0  0  0  0  0  0  0  0  0
   18.3153    0.7000    0.0000 C   0  0  0  0  0  0  0  0  0  0  0  0
   18.3153    2.1000    0.0000 C   0  0  0  0  0  0  0  0  0  0  0  0
   17.1029    2.8000    0.0000 C   0  0  0  0  0  0  0  0  0  0  0  0
   17.1029    4.2000    0.0000 F   0  0  0  0  0  0  0  0  0  0  0  0
   14.6780    0.0000    0.0000 F   0  0  0  0  0  0  0  0  0  0  0  0
    9.6995    2.8728    0.0000 C   0  0  0  0  0  0  0  0  0  0  0  0
    9.6995    4.2728    0.0000 C   0  0  0  0  0  0  0  0  0  0  0  0
    8.4870    4.9728    0.0000 C   0  0  0  0  0  0  0  0  0  0  0  0
    7.2746    4.2728    0.0000 C   0  0  0  0  0  0  0  0  0  0  0  0
    7.2746    2.8728    0.0000 C   0  0  0  0  0  0  0  0  0  0  0  0
    8.4870    2.1728    0.0000 C   0  0  0  0  0  0  0  0  0  0  0  0
    6.0622    2.1728    0.0000 Cl  0  0  0  0  0  0  0  0  0  0  0  0
    6.0622    4.9728    0.0000 O   0  0  0  0  0  0  0  0  0  0  0  0
    4.8497    4.2728    0.0000 C   0  0  0  0  0  0  0  0  0  0  0  0
    3.6373    4.9728    0.0000 C   0  0  0  0  0  0  0  0  0  0  0  0
    2.4249    4.2728    0.0000 C   0  0  0  0  0  0  0  0  0  0  0  0
    2.4249    2.8728    0.0000 C   0  0  0  0  0  0  0  0  0  0  0  0
    3.6373    2.1728    0.0000 C   0  0  0  0  0  0  0  0  0  0  0  0
    4.8497    2.8728    0.0000 C   0  0  0  0  0  0  0  0  0  0  0  0
    3.6373    6.3728    0.0000 Cl  0  0  0  0  0  0  0  0  0  0  0  0
    1.2124    2.1728    0.0000 C   0  0  0  0  0  0  0  0  0  0  0  0
    1.2124    0.7728    0.0000 F   0  0  0  0  0  0  0  0  0  0  0  0
    0.0000    2.8728    0.0000 F   0  0  0  0  0  0  0  0  0  0  0  0
    0.0000    1.4728    0.0000 F   0  0  0  0  0  0  0  0  0  0  0  0
   10.9119    4.9728    0.0000 F   0  0  0  0  0  0  0  0  0  0  0  0
  1  2  1  0  0  0  0
  2  3  1  0  0  0  0
  2  4  2  0  0  0  0
  3  5  1  0  0  0  0
  5  6  1  0  0  0  0
  5  7  2  0  0  0  0
  6  8  2  0  0  0  0
  8  9  1  0  0  0  0
  9 10  2  0  0  0  0
 10 11  1  0  0  0  0
 11 12  2  0  0  0  0
 12  6  1  0  0  0  0
 12 13  1  0  0  0  0
  8 14  1  0  0  0  0
  1 15  1  0  0  0  0
 15 16  2  0  0  0  0
 16 17  1  0  0  0  0
 17 18  2  0  0  0  0
 18 19  1  0  0  0  0
 19 20  2  0  0  0  0
 20 15  1  0  0  0  0
 19 21  1  0  0  0  0
 18 22  1  0  0  0  0
 22 23  1  0  0  0  0
 23 24  2  0  0  0  0
 24 25  1  0  0  0  0
 25 26  2  0  0  0  0
 26 27  1  0  0  0  0
 27 28  2  0  0  0  0
 28 23  1  0  0  0  0
 24 29  1  0  0  0  0
 26 30  1  0  0  0  0
 30 31  1  0  0  0  0
 30 32  1  0  0  0  0
 30 33  1  0  0  0  0
 16 34  1  0  0  0  0
M  END
> <Molecule Name>
267

> <CDD Number>
CDD-16069

> <Human_sEH_IC50_uM>
100.0

> <Mouse_sEH_IC50_uM>
100.0

$$$$

SketchEl molfile

 34 36  0  0  0  0  0  0  0  0999 V2000
   11.2482    2.1728    0.0000 N   0  0  0  0  0  0  0  0  0  0  0  0
   12.4606    2.8728    0.0000 C   0  0  0  0  0  0  0  0  0  0  0  0
   13.6731    2.1728    0.0000 N   0  0  0  0  0  0  0  0  0  0  0  0
   12.4606    4.2728    0.0000 O   0  0  0  0  0  0  0  0  0  0  0  0
   14.6630    2.7734    0.0000 C   0  0  0  0  0  0  0  0  0  0  0  0
   15.8904    2.1000    0.0000 C   0  0  0  0  0  0  0  0  0  0  0  0
   14.6630    4.1734    0.0000 O   0  0  0  0  0  0  0  0  0  0  0  0
   15.8904    0.7000    0.0000 C   0  0  0  0  0  0  0  0  0  0  0  0
   17.1029    0.0000    0.0000 C   0  0  0  0  0  0  0  0  0  0  0  0
   18.3153    0.7000    0.0000 C   0  0  0  0  0  0  0  0  0  0  0  0
   18.3153    2.1000    0.0000 C   0  0  0  0  0  0  0  0  0  0  0  0
   17.1029    2.8000    0.0000 C   0  0  0  0  0  0  0  0  0  0  0  0
   17.1029    4.2000    0.0000 F   0  0  0  0  0  0  0  0  0  0  0  0
   14.6780    0.0000    0.0000 F   0  0  0  0  0  0  0  0  0  0  0  0
    9.6995    2.8728    0.0000 C   0  0  0  0  0  0  0  0  0  0  0  0
    9.6995    4.2728    0.0000 C   0  0  0  0  0  0  0  0  0  0  0  0
    8.4870    4.9728    0.0000 C   0  0  0  0  0  0  0  0  0  0  0  0
    7.2746    4.2728    0.0000 C   0  0  0  0  0  0  0  0  0  0  0  0
    7.2746    2.8728    0.0000 C   0  0  0  0  0  0  0  0  0  0  0  0
    8.4870    2.1728    0.0000 C   0  0  0  0  0  0  0  0  0  0  0  0
    6.0622    2.1728    0.0000 Cl  0  0  0  0  0  0  0  0  0  0  0  0
    8.4870    6.3728    0.0000 Cl  0  0  0  0  0  0  0  0  0  0  0  0
    6.0622    4.9728    0.0000 O   0  0  0  0  0  0  0  0  0  0  0  0
    4.8497    4.2728    0.0000 C   0  0  0  0  0  0  0  0  0  0  0  0
    3.6373    4.9728    0.0000 C   0  0  0  0  0  0  0  0  0  0  0  0
    2.4249    4.2728    0.0000 C   0  0  0  0  0  0  0  0  0  0  0  0
    2.4249    2.8728    0.0000 C   0  0  0  0  0  0  0  0  0  0  0  0
    3.6373    2.1728    0.0000 C   0  0  0  0  0  0  0  0  0  0  0  0
    4.8497    2.8728    0.0000 N   0  0  0  0  0  0  0  0  0  0  0  0
    3.6373    6.3728    0.0000 Cl  0  0  0  0  0  0  0  0  0  0  0  0
    1.2124    2.1728    0.0000 C   0  0  0  0  0  0  0  0  0  0  0  0
    1.2124    0.7728    0.0000 F   0  0  0  0  0  0  0  0  0  0  0  0
    0.0000    2.8728    0.0000 F   0  0  0  0  0  0  0  0  0  0  0  0
    0.0000    1.4728    0.0000 F   0  0  0  0  0  0  0  0  0  0  0  0
  1  2  1  0  0  0  0
  2  3  1  0  0  0  0
  2  4  2  0  0  0  0
  3  5  1  0  0  0  0
  5  6  1  0  0  0  0
  5  7  2  0  0  0  0
  6  8  2  0  0  0  0
  8  9  1  0  0  0  0
  9 10  2  0  0  0  0
 10 11  1  0  0  0  0
 11 12  2  0  0  0  0
 12  6  1  0  0  0  0
 12 13  1  0  0  0  0
  8 14  1  0  0  0  0
  1 15  1  0  0  0  0
 15 16  2  0  0  0  0
 16 17  1  0  0  0  0
 17 18  2  0  0  0  0
 18 19  1  0  0  0  0
 19 20  2  0  0  0  0
 20 15  1  0  0  0  0
 19 21  1  0  0  0  0
 17 22  1  0  0  0  0
 18 23  1  0  0  0  0
 23 24  1  0  0  0  0
 24 25  2  0  0  0  0
 25 26  1  0  0  0  0
 26 27  2  0  0  0  0
 27 28  1  0  0  0  0
 28 29  2  0  0  0  0
 29 24  1  0  0  0  0
 25 30  1  0  0  0  0
 27 31  1  0  0  0  0
 31 32  1  0  0  0  0
 31 33  1  0  0  0  0
 31 34  1  0  0  0  0
M  END
> <Molecule Name>
266

> <CDD Number>
CDD-16068

> <Human_sEH_IC50_uM>
100.0

> <Mouse_sEH_IC50_uM>
100.0

$$$$

SketchEl molfile

 21 22  0  0  0  0  0  0  0  0999 V2000
    4.8497    2.1993    0.0000 N   0  0  0  0  0  0  0  0  0  0  0  0
    6.0622    2.8993    0.0000 C   0  0  0  0  0  0  0  0  0  0  0  0
    7.2746    2.1993    0.0000 N   0  0  0  0  0  0  0  0  0  0  0  0
    6.0622    4.2993    0.0000 O   0  0  0  0  0  0  0  0  0  0  0  0
    3.6373    2.8993    0.0000 C   0  0  0  0  0  0  0  0  0  0  0  0
    3.6373    4.2993    0.0000 C   0  0  0  0  0  0  0  0  0  0  0  0
    2.4249    4.9993    0.0000 C   0  0  0  0  0  0  0  0  0  0  0  0
    1.2124    4.2993    0.0000 C   0  0  0  0  0  0  0  0  0  0  0  0
    1.2124    2.8993    0.0000 C   0  0  0  0  0  0  0  0  0  0  0  0
    2.4249    2.1993    0.0000 C   0  0  0  0  0  0  0  0  0  0  0  0
    0.0000    4.9993    0.0000 Cl  0  0  0  0  0  0  0  0  0  0  0  0
    8.2646    2.8000    0.0000 C   0  0  0  0  0  0  0  0  0  0  0  0
    9.4770    2.1000    0.0000 C   0  0  0  0  0  0  0  0  0  0  0  0
    8.2646    4.2000    0.0000 O   0  0  0  0  0  0  0  0  0  0  0  0
    9.4770    0.7000    0.0000 C   0  0  0  0  0  0  0  0  0  0  0  0
   10.6894    0.0000    0.0000 C   0  0  0  0  0  0  0  0  0  0  0  0
   11.9019    0.7000    0.0000 C   0  0  0  0  0  0  0  0  0  0  0  0
   11.9019    2.1000    0.0000 C   0  0  0  0  0  0  0  0  0  0  0  0
   10.6894    2.8000    0.0000 C   0  0  0  0  0  0  0  0  0  0  0  0
   10.6894    4.2000    0.0000 F   0  0  0  0  0  0  0  0  0  0  0  0
    8.2646    0.0000    0.0000 F   0  0  0  0  0  0  0  0  0  0  0  0
  1  2  1  0  0  0  0
  2  3  1  0  0  0  0
  2  4  2  0  0  0  0
  1  5  1  0  0  0  0
  5  6  2  0  0  0  0
  6  7  1  0  0  0  0
  7  8  2  0  0  0  0
  8  9  1  0  0  0  0
  9 10  2  0  0  0  0
 10  5  1  0  0  0  0
  8 11  1  0  0  0  0
  3 12  1  0  0  0  0
 12 13  1  0  0  0  0
 12 14  2  0  0  0  0
 13 15  2  0  0  0  0
 15 16  1  0  0  0  0
 16 17  2  0  0  0  0
 17 18  1  0  0  0  0
 18 19  2  0  0  0  0
 19 13  1  0  0  0  0
 19 20  1  0  0  0  0
 15 21  1  0  0  0  0
M  END
> <Molecule Name>
265

> <CDD Number>
CDD-16067

> <Human_sEH_IC50_uM>
100.0

> <Mouse_sEH_IC50_uM>
100.0

$$$$

SketchEl molfile

 16 17  0  0  0  0  0  0  0  0999 V2000
    1.2124    0.8748    0.0000 C   0  0  0  0  0  0  0  0  0  0  0  0
    2.4249    1.5748    0.0000 C   0  0  0  0  0  0  0  0  0  0  0  0
    2.4249    2.9748    0.0000 C   0  0  0  0  0  0  0  0  0  0  0  0
    1.2124    3.6748    0.0000 C   0  0  0  0  0  0  0  0  0  0  0  0
    0.0000    2.9748    0.0000 C   0  0  0  0  0  0  0  0  0  0  0  0
    0.0000    1.5748    0.0000 C   0  0  0  0  0  0  0  0  0  0  0  0
    3.7772    3.3371    0.0000 C   0  0  0  0  0  0  0  0  0  0  0  0
    3.7772    1.2124    0.0000 C   0  0  0  0  0  0  0  0  0  0  0  0
    4.7671    2.3472    0.0000 N   0  0  0  0  0  0  0  0  0  0  0  0
    4.1395    4.6894    0.0000 O   0  0  0  0  0  0  0  0  0  0  0  0
    4.4772    0.0000    0.0000 O   0  0  0  0  0  0  0  0  0  0  0  0
    6.1671    2.3472    0.0000 S   0  0  0  0  0  0  0  0  0  0  0  0
    7.5671    2.3472    0.0000 C   0  0  0  0  0  0  0  0  0  0  0  0
    8.5571    3.3371    0.0000 Cl  0  0  0  0  0  0  0  0  0  0  0  0
    8.5571    1.3572    0.0000 Cl  0  0  0  0  0  0  0  0  0  0  0  0
    8.9671    2.3472    0.0000 Cl  0  0  0  0  0  0  0  0  0  0  0  0
  1  2  1  0  0  0  0
  2  3  1  0  0  0  0
  3  4  1  0  0  0  0
  4  5  1  0  0  0  0
  5  6  2  0  0  0  0
  6  1  1  0  0  0  0
  3  7  1  0  0  0  0
  2  8  1  0  0  0  0
  7  9  1  0  0  0  0
  8  9  1  0  0  0  0
  7 10  2  0  0  0  0
  8 11  2  0  0  0  0
  9 12  1  0  0  0  0
 12 13  1  0  0  0  0
 13 14  1  0  0  0  0
 13 15  1  0  0  0  0
 13 16  1  0  0  0  0
M  END
> <Molecule Name>
264

> <CDD Number>
CDD-16072

> <Human_sEH_IC50_uM>
500.0

> <Mouse_sEH_IC50_uM>
300.0

$$$$

SketchEl molfile

 25 28  0  0  0  0  0  0  0  0999 V2000
    2.4249    4.9000    0.0000 C   0  0  0  0  0  0  0  0  0  0  0  0
    3.6373    4.2000    0.0000 N   0  0  0  0  0  0  0  0  0  0  0  0
    4.8497    4.9000    0.0000 C   0  0  0  0  0  0  0  0  0  0  0  0
    6.0622    4.2000    0.0000 O   0  0  0  0  0  0  0  0  0  0  0  0
    4.8497    6.3000    0.0000 O   0  0  0  0  0  0  0  0  0  0  0  0
    7.2746    4.9000    0.0000 C   0  0  0  0  0  0  0  0  0  0  0  0
    8.4870    4.2000    0.0000 C   0  0  0  0  0  0  0  0  0  0  0  0
    8.4870    2.8000    0.0000 C   0  0  0  0  0  0  0  0  0  0  0  0
    9.6995    2.1000    0.0000 C   0  0  0  0  0  0  0  0  0  0  0  0
   10.9119    2.8000    0.0000 C   0  0  0  0  0  0  0  0  0  0  0  0
   10.9119    4.2000    0.0000 C   0  0  0  0  0  0  0  0  0  0  0  0
    9.6995    4.9000    0.0000 C   0  0  0  0  0  0  0  0  0  0  0  0
   12.1244    4.9000    0.0000 C   0  0  0  0  0  0  0  0  0  0  0  0
   12.1244    6.3000    0.0000 C   0  0  0  0  0  0  0  0  0  0  0  0
   10.9119    7.0000    0.0000 C   0  0  0  0  0  0  0  0  0  0  0  0
    9.6995    6.3000    0.0000 C   0  0  0  0  0  0  0  0  0  0  0  0
    7.2746    2.1000    0.0000 C   0  0  0  0  0  0  0  0  0  0  0  0
    7.2746    0.7000    0.0000 C   0  0  0  0  0  0  0  0  0  0  0  0
    8.4870    0.0000    0.0000 C   0  0  0  0  0  0  0  0  0  0  0  0
    9.6995    0.7000    0.0000 C   0  0  0  0  0  0  0  0  0  0  0  0
    2.4249    6.3000    0.0000 C   0  0  0  0  0  0  0  0  0  0  0  0
    1.2124    7.0000    0.0000 C   0  0  0  0  0  0  0  0  0  0  0  0
    0.0000    6.3000    0.0000 C   0  0  0  0  0  0  0  0  0  0  0  0
    0.0000    4.9000    0.0000 C   0  0  0  0  0  0  0  0  0  0  0  0
    1.2124    4.2000    0.0000 C   0  0  0  0  0  0  0  0  0  0  0  0
  1  2  1  0  0  0  0
  2  3  1  0  0  0  0
  3  4  1  0  0  0  0
  3  5  2  0  0  0  0
  4  6  1  0  0  0  0
  6  7  1  0  0  0  0
  7  8  2  0  0  0  0
  8  9  1  0  0  0  0
  9 10  2  0  0  0  0
 10 11  1  0  0  0  0
 11 12  2  0  0  0  0
 12  7  1  0  0  0  0
 11 13  1  0  0  0  0
 13 14  2  0  0  0  0
 14 15  1  0  0  0  0
 15 16  2  0  0  0  0
 16 12  1  0  0  0  0
  8 17  1  0  0  0  0
 17 18  2  0  0  0  0
 18 19  1  0  0  0  0
 19 20  2  0  0  0  0
 20  9  1  0  0  0  0
  1 21  1  0  0  0  0
 21 22  1  0  0  0  0
 22 23  1  0  0  0  0
 23 24  1  0  0  0  0
 24 25  1  0  0  0  0
 25  1  1  0  0  0  0
M  END
> <Molecule Name>
263

> <CDD Number>
CDD-16102

> <Human_sEH_IC50_uM>
0.33

> <Mouse_sEH_IC50_uM>
3.0

$$$$

SketchEl molfile

 21 23  0  0  0  0  0  0  0  0999 V2000
    0.0000    2.8001    0.0000 C   0  0  0  0  0  0  0  0  0  0  0  0
    1.2124    2.1001    0.0000 C   0  0  0  0  0  0  0  0  0  0  0  0
    2.4249    2.8001    0.0000 C   0  0  0  0  0  0  0  0  0  0  0  0
    2.4249    4.2001    0.0000 C   0  0  0  0  0  0  0  0  0  0  0  0
    1.2124    4.9001    0.0000 C   0  0  0  0  0  0  0  0  0  0  0  0
    0.0000    4.2001    0.0000 C   0  0  0  0  0  0  0  0  0  0  0  0
    3.6373    2.1001    0.0000 N   0  0  0  0  0  0  0  0  0  0  0  0
    4.8497    2.8001    0.0000 C   0  0  0  0  0  0  0  0  0  0  0  0
    6.0622    2.1001    0.0000 O   0  0  0  0  0  0  0  0  0  0  0  0
    4.8497    4.2001    0.0000 O   0  0  0  0  0  0  0  0  0  0  0  0
    7.2746    2.8001    0.0000 C   0  0  0  0  0  0  0  0  0  0  0  0
    8.4870    2.1000    0.0000 C   0  0  0  0  0  0  0  0  0  0  0  0
    8.4870    0.7000    0.0000 C   0  0  0  0  0  0  0  0  0  0  0  0
    9.6994    0.0000    0.0000 C   0  0  0  0  0  0  0  0  0  0  0  0
   10.9118    0.7000    0.0000 C   0  0  0  0  0  0  0  0  0  0  0  0
   10.9118    2.1000    0.0000 C   0  0  0  0  0  0  0  0  0  0  0  0
    9.6994    2.8000    0.0000 C   0  0  0  0  0  0  0  0  0  0  0  0
   12.1243    2.8000    0.0000 C   0  0  0  0  0  0  0  0  0  0  0  0
   12.1243    4.2000    0.0000 C   0  0  0  0  0  0  0  0  0  0  0  0
   10.9118    4.9000    0.0000 C   0  0  0  0  0  0  0  0  0  0  0  0
    9.6994    4.2000    0.0000 C   0  0  0  0  0  0  0  0  0  0  0  0
  1  2  1  0  0  0  0
  2  3  1  0  0  0  0
  3  4  1  0  0  0  0
  4  5  1  0  0  0  0
  5  6  1  0  0  0  0
  6  1  1  0  0  0  0
  3  7  1  0  0  0  0
  7  8  1  0  0  0  0
  8  9  1  0  0  0  0
  8 10  2  0  0  0  0
  9 11  1  0  0  0  0
 11 12  1  0  0  0  0
 12 13  2  0  0  0  0
 13 14  1  0  0  0  0
 14 15  2  0  0  0  0
 15 16  1  0  0  0  0
 16 17  2  0  0  0  0
 17 12  1  0  0  0  0
 16 18  1  0  0  0  0
 18 19  2  0  0  0  0
 19 20  1  0  0  0  0
 20 21  2  0  0  0  0
 21 17  1  0  0  0  0
M  END
> <Molecule Name>
262

> <CDD Number>
CDD-16099

> <Human_sEH_IC50_uM>
0.1

> <Mouse_sEH_IC50_uM>
0.05

$$$$

SketchEl molfile

 20 21  0  0  0  0  0  0  0  0999 V2000
    0.0000    2.8000    0.0000 C   0  0  0  0  0  0  0  0  0  0  0  0
    1.2124    2.1000    0.0000 C   0  0  0  0  0  0  0  0  0  0  0  0
    2.4249    2.8000    0.0000 C   0  0  0  0  0  0  0  0  0  0  0  0
    2.4249    4.2000    0.0000 C   0  0  0  0  0  0  0  0  0  0  0  0
    1.2124    4.9000    0.0000 C   0  0  0  0  0  0  0  0  0  0  0  0
    0.0000    4.2000    0.0000 C   0  0  0  0  0  0  0  0  0  0  0  0
    3.6373    2.1000    0.0000 N   0  0  0  0  0  0  0  0  0  0  0  0
    4.8497    2.8000    0.0000 C   0  0  0  0  0  0  0  0  0  0  0  0
    6.0622    2.1000    0.0000 O   0  0  0  0  0  0  0  0  0  0  0  0
    4.8497    4.2000    0.0000 O   0  0  0  0  0  0  0  0  0  0  0  0
    7.2746    2.8000    0.0000 C   0  0  0  0  0  0  0  0  0  0  0  0
    8.4870    2.1000    0.0000 C   0  0  0  0  0  0  0  0  0  0  0  0
    9.6995    2.8000    0.0000 C   0  0  0  0  0  0  0  0  0  0  0  0
    9.6995    4.2000    0.0000 C   0  0  0  0  0  0  0  0  0  0  0  0
    8.4870    4.9000    0.0000 C   0  0  0  0  0  0  0  0  0  0  0  0
    7.2746    4.2000    0.0000 C   0  0  0  0  0  0  0  0  0  0  0  0
    8.4870    0.7000    0.0000 C   0  0  0  0  0  0  0  0  0  0  0  0
    9.6995    0.0000    0.0000 C   0  0  0  0  0  0  0  0  0  0  0  0
    7.2746    0.0000    0.0000 C   0  0  0  0  0  0  0  0  0  0  0  0
    8.4870    6.3000    0.0000 C   0  0  0  0  0  0  0  0  0  0  0  0
  1  2  1  0  0  0  0
  2  3  1  0  0  0  0
  3  4  1  0  0  0  0
  4  5  1  0  0  0  0
  5  6  1  0  0  0  0
  6  1  1  0  0  0  0
  3  7  1  0  0  0  0
  7  8  1  0  0  0  0
  8  9  1  0  0  0  0
  8 10  2  0  0  0  0
  9 11  1  0  0  0  0
 11 12  1  0  0  0  0
 12 13  1  0  0  0  0
 13 14  1  0  0  0  0
 14 15  1  0  0  0  0
 15 16  1  0  0  0  0
 16 11  1  0  0  0  0
 12 17  1  0  0  0  0
 17 18  1  0  0  0  0
 17 19  1  0  0  0  0
 15 20  1  0  0  0  0
M  END
> <Molecule Name>
261

> <CDD Number>
CDD-16098

> <Human_sEH_IC50_uM>
0.12

> <Mouse_sEH_IC50_uM>
0.08

$$$$

SketchEl molfile

 20 23  0  0  0  0  0  0  0  0999 V2000
    0.0000    0.7000    0.0000 C   0  0  0  0  0  0  0  0  0  0  0  0
    1.2124    0.0000    0.0000 C   0  0  0  0  0  0  0  0  0  0  0  0
    2.4249    0.7000    0.0000 C   0  0  0  0  0  0  0  0  0  0  0  0
    2.4249    2.1000    0.0000 C   0  0  0  0  0  0  0  0  0  0  0  0
    1.2124    2.8000    0.0000 C   0  0  0  0  0  0  0  0  0  0  0  0
    0.0000    2.1000    0.0000 C   0  0  0  0  0  0  0  0  0  0  0  0
    3.6373    0.0000    0.0000 N   0  0  0  0  0  0  0  0  0  0  0  0
    4.8497    0.7000    0.0000 C   0  0  0  0  0  0  0  0  0  0  0  0
    6.0622    0.0000    0.0000 O   0  0  0  0  0  0  0  0  0  0  0  0
    4.8497    2.1000    0.0000 O   0  0  0  0  0  0  0  0  0  0  0  0
    7.9465    1.5860    0.0000 C   0  0  0  0  0  0  0  0  0  0  0  0
    7.2465    0.3735    0.0000 C   0  0  0  0  0  0  0  0  0  0  0  0
    8.5927    0.7582    0.0000 C   0  0  0  0  0  0  0  0  0  0  0  0
    9.9469    0.3735    0.0000 C   0  0  0  0  0  0  0  0  0  0  0  0
   10.6471    1.5860    0.0000 C   0  0  0  0  0  0  0  0  0  0  0  0
    9.3009    1.2014    0.0000 C   0  0  0  0  0  0  0  0  0  0  0  0
    7.9465    2.9860    0.0000 C   0  0  0  0  0  0  0  0  0  0  0  0
    8.5927    2.1582    0.0000 C   0  0  0  0  0  0  0  0  0  0  0  0
   10.6471    2.9860    0.0000 C   0  0  0  0  0  0  0  0  0  0  0  0
    9.2927    3.3707    0.0000 C   0  0  0  0  0  0  0  0  0  0  0  0
  1  2  1  0  0  0  0
  2  3  1  0  0  0  0
  3  4  1  0  0  0  0
  4  5  1  0  0  0  0
  5  6  1  0  0  0  0
  6  1  1  0  0  0  0
  3  7  1  0  0  0  0
  7  8  1  0  0  0  0
  8  9  1  0  0  0  0
  8 10  2  0  0  0  0
 11 12  1  0  0  0  0
 12 13  1  0  0  0  0
 13 14  1  0  0  0  0
 14 15  1  0  0  0  0
 15 16  1  0  0  0  0
 16 11  1  0  0  0  0
 11 17  1  0  0  0  0
 13 18  1  0  0  0  0
 15 19  1  0  0  0  0
 18 20  1  0  0  0  0
 17 20  1  0  0  0  0
 19 20  1  0  0  0  0
  9 12  1  0  0  0  0
M  END
> <Molecule Name>
260

> <CDD Number>
CDD-16097

> <Human_sEH_IC50_uM>
0.1

> <Mouse_sEH_IC50_uM>
0.06

$$$$

SketchEl molfile

 23 25  0  0  0  0  0  0  0  0999 V2000
    0.0000    4.9001    0.0000 C   0  0  0  0  0  0  0  0  0  0  0  0
    1.2124    4.2001    0.0000 C   0  0  0  0  0  0  0  0  0  0  0  0
    2.4249    4.9001    0.0000 C   0  0  0  0  0  0  0  0  0  0  0  0
    2.4249    6.3001    0.0000 C   0  0  0  0  0  0  0  0  0  0  0  0
    1.2124    7.0001    0.0000 C   0  0  0  0  0  0  0  0  0  0  0  0
    0.0000    6.3001    0.0000 C   0  0  0  0  0  0  0  0  0  0  0  0
    3.6373    4.2001    0.0000 N   0  0  0  0  0  0  0  0  0  0  0  0
    4.8497    4.9001    0.0000 C   0  0  0  0  0  0  0  0  0  0  0  0
    6.0622    4.2001    0.0000 O   0  0  0  0  0  0  0  0  0  0  0  0
    4.8497    6.3001    0.0000 O   0  0  0  0  0  0  0  0  0  0  0  0
    7.2746    4.9001    0.0000 C   0  0  0  0  0  0  0  0  0  0  0  0
    8.4870    4.2000    0.0000 C   0  0  0  0  0  0  0  0  0  0  0  0
    8.4870    2.8000    0.0000 C   0  0  0  0  0  0  0  0  0  0  0  0
    9.6994    2.1000    0.0000 C   0  0  0  0  0  0  0  0  0  0  0  0
   10.9118    2.8000    0.0000 C   0  0  0  0  0  0  0  0  0  0  0  0
   10.9118    4.2000    0.0000 C   0  0  0  0  0  0  0  0  0  0  0  0
    9.6994    4.9000    0.0000 C   0  0  0  0  0  0  0  0  0  0  0  0
   12.1243    2.1000    0.0000 C   0  0  0  0  0  0  0  0  0  0  0  0
   12.1243    0.7000    0.0000 C   0  0  0  0  0  0  0  0  0  0  0  0
   13.3367    0.0000    0.0000 C   0  0  0  0  0  0  0  0  0  0  0  0
   14.5492    0.7000    0.0000 C   0  0  0  0  0  0  0  0  0  0  0  0
   14.5492    2.1000    0.0000 C   0  0  0  0  0  0  0  0  0  0  0  0
   13.3367    2.8000    0.0000 C   0  0  0  0  0  0  0  0  0  0  0  0
  1  2  1  0  0  0  0
  2  3  1  0  0  0  0
  3  4  1  0  0  0  0
  4  5  1  0  0  0  0
  5  6  1  0  0  0  0
  6  1  1  0  0  0  0
  3  7  1  0  0  0  0
  7  8  1  0  0  0  0
  8  9  1  0  0  0  0
  8 10  2  0  0  0  0
  9 11  1  0  0  0  0
 11 12  1  0  0  0  0
 12 13  2  0  0  0  0
 13 14  1  0  0  0  0
 14 15  2  0  0  0  0
 15 16  1  0  0  0  0
 16 17  2  0  0  0  0
 17 12  1  0  0  0  0
 15 18  1  0  0  0  0
 18 19  2  0  0  0  0
 19 20  1  0  0  0  0
 20 21  2  0  0  0  0
 21 22  1  0  0  0  0
 22 23  2  0  0  0  0
 23 18  1  0  0  0  0
M  END
> <Molecule Name>
259

> <CDD Number>
CDD-16096

> <Human_sEH_IC50_uM>
0.1

> <Mouse_sEH_IC50_uM>
0.45

$$$$

SketchEl molfile

 19 20  0  0  0  0  0  0  0  0999 V2000
    0.0000    4.2728    0.0000 C   0  0  0  0  0  0  0  0  0  0  0  0
    0.0000    2.8728    0.0000 C   0  0  0  0  0  0  0  0  0  0  0  0
    1.2124    2.1728    0.0000 C   0  0  0  0  0  0  0  0  0  0  0  0
    2.4249    2.8728    0.0000 C   0  0  0  0  0  0  0  0  0  0  0  0
    2.4249    4.2728    0.0000 C   0  0  0  0  0  0  0  0  0  0  0  0
    1.2124    4.9728    0.0000 C   0  0  0  0  0  0  0  0  0  0  0  0
    3.6373    2.1728    0.0000 N   0  0  0  0  0  0  0  0  0  0  0  0
    4.8497    2.8728    0.0000 C   0  0  0  0  0  0  0  0  0  0  0  0
    6.0622    2.1728    0.0000 N   0  0  0  0  0  0  0  0  0  0  0  0
    4.8497    4.2728    0.0000 O   0  0  0  0  0  0  0  0  0  0  0  0
    7.0521    2.7734    0.0000 C   0  0  0  0  0  0  0  0  0  0  0  0
    8.2795    2.1000    0.0000 C   0  0  0  0  0  0  0  0  0  0  0  0
    7.0521    4.1734    0.0000 O   0  0  0  0  0  0  0  0  0  0  0  0
    8.2795    0.7000    0.0000 C   0  0  0  0  0  0  0  0  0  0  0  0
    9.4920    0.0000    0.0000 C   0  0  0  0  0  0  0  0  0  0  0  0
   10.7044    0.7000    0.0000 C   0  0  0  0  0  0  0  0  0  0  0  0
   10.7044    2.1000    0.0000 C   0  0  0  0  0  0  0  0  0  0  0  0
    9.4920    2.8000    0.0000 C   0  0  0  0  0  0  0  0  0  0  0  0
   11.9168    0.0000    0.0000 Cl  0  0  0  0  0  0  0  0  0  0  0  0
  1  2  1  0  0  0  0
  2  3  1  0  0  0  0
  3  4  1  0  0  0  0
  4  5  1  0  0  0  0
  5  6  1  0  0  0  0
  6  1  1  0  0  0  0
  4  7  1  0  0  0  0
  7  8  1  0  0  0  0
  8  9  1  0  0  0  0
  8 10  2  0  0  0  0
  9 11  1  0  0  0  0
 11 12  1  0  0  0  0
 11 13  2  0  0  0  0
 12 14  2  0  0  0  0
 14 15  1  0  0  0  0
 15 16  2  0  0  0  0
 16 17  1  0  0  0  0
 17 18  2  0  0  0  0
 18 12  1  0  0  0  0
 16 19  1  0  0  0  0
M  END
> <Molecule Name>
257

> <CDD Number>
CDD-16065

> <Human_sEH_IC50_uM>
0.1

> <Mouse_sEH_IC50_uM>
0.05

$$$$

SketchEl molfile

 12 12  0  0  0  0  0  0  0  0999 V2000
    0.0000    2.1000    0.0000 C   0  0  0  0  0  0  0  0  0  0  0  0
    0.0000    0.7000    0.0000 C   0  0  0  0  0  0  0  0  0  0  0  0
    1.2124    0.0000    0.0000 C   0  0  0  0  0  0  0  0  0  0  0  0
    2.4249    0.7000    0.0000 C   0  0  0  0  0  0  0  0  0  0  0  0
    2.4249    2.1000    0.0000 C   0  0  0  0  0  0  0  0  0  0  0  0
    1.2124    2.8000    0.0000 C   0  0  0  0  0  0  0  0  0  0  0  0
    3.6373    0.0000    0.0000 O   0  0  0  0  0  0  0  0  0  0  0  0
    4.8497    0.7000    0.0000 C   0  0  0  0  0  0  0  0  0  0  0  0
    6.0622    0.0000    0.0000 N   0  0  0  0  0  0  0  0  0  0  0  0
    4.8497    2.1000    0.0000 O   0  0  0  0  0  0  0  0  0  0  0  0
    7.2746    0.7000    0.0000 C   0  0  0  0  0  0  0  0  0  0  0  0
    8.4870    0.0000    0.0000 C   0  0  0  0  0  0  0  0  0  0  0  0
  1  2  1  0  0  0  0
  2  3  1  0  0  0  0
  3  4  1  0  0  0  0
  4  5  1  0  0  0  0
  5  6  1  0  0  0  0
  6  1  1  0  0  0  0
  4  7  1  0  0  0  0
  7  8  1  0  0  0  0
  8  9  1  0  0  0  0
  8 10  2  0  0  0  0
  9 11  1  0  0  0  0
 11 12  1  0  0  0  0
M  END
> <Molecule Name>
255

> <CDD Number>
CDD-16103

> <Human_sEH_IC50_uM>
2.88

> <Mouse_sEH_IC50_uM>
0.48

$$$$

SketchEl molfile

 15 16  0  0  0  0  0  0  0  0999 V2000
    0.0000    1.2124    0.0000 C   0  0  0  0  0  0  0  0  0  0  0  0
    0.7000    0.0000    0.0000 C   0  0  0  0  0  0  0  0  0  0  0  0
    2.1000    0.0000    0.0000 C   0  0  0  0  0  0  0  0  0  0  0  0
    2.8000    1.2124    0.0000 C   0  0  0  0  0  0  0  0  0  0  0  0
    2.1000    2.4249    0.0000 C   0  0  0  0  0  0  0  0  0  0  0  0
    0.7000    2.4249    0.0000 C   0  0  0  0  0  0  0  0  0  0  0  0
    2.8000    3.6373    0.0000 C   0  0  0  0  0  0  0  0  0  0  0  0
    2.1000    4.8497    0.0000 C   0  0  0  0  0  0  0  0  0  0  0  0
    0.7000    4.8497    0.0000 C   0  0  0  0  0  0  0  0  0  0  0  0
    0.0000    3.6373    0.0000 C   0  0  0  0  0  0  0  0  0  0  0  0
    4.2000    1.2124    0.0000 N   0  0  0  0  0  0  0  0  0  0  0  0
    5.1899    1.8131    0.0000 C   0  0  0  0  0  0  0  0  0  0  0  0
    6.4024    1.1131    0.0000 O   0  0  0  0  0  0  0  0  0  0  0  0
    5.1899    3.2131    0.0000 O   0  0  0  0  0  0  0  0  0  0  0  0
    7.6148    1.8131    0.0000 C   0  0  0  0  0  0  0  0  0  0  0  0
  1  2  2  0  0  0  0
  2  3  1  0  0  0  0
  3  4  2  0  0  0  0
  4  5  1  0  0  0  0
  5  6  2  0  0  0  0
  6  1  1  0  0  0  0
  5  7  1  0  0  0  0
  7  8  2  0  0  0  0
  8  9  1  0  0  0  0
  9 10  2  0  0  0  0
 10  6  1  0  0  0  0
  4 11  1  0  0  0  0
 11 12  1  0  0  0  0
 12 13  1  0  0  0  0
 12 14  2  0  0  0  0
 13 15  1  0  0  0  0
M  END
> <Molecule Name>
254

> <CDD Number>
CDD-16108

> <Human_sEH_IC50_uM>
290.0

> <Mouse_sEH_IC50_uM>
64.0

$$$$

SketchEl molfile

 17 18  0  0  0  0  0  0  0  0999 V2000
    4.5363    1.2124    0.0000 N   0  0  0  0  0  0  0  0  0  0  0  0
    5.7487    1.9124    0.0000 C   0  0  0  0  0  0  0  0  0  0  0  0
    6.9612    1.2124    0.0000 N   0  0  0  0  0  0  0  0  0  0  0  0
    5.7487    3.3124    0.0000 O   0  0  0  0  0  0  0  0  0  0  0  0
    7.9511    1.8131    0.0000 C   0  0  0  0  0  0  0  0  0  0  0  0
    2.8000    1.2124    0.0000 C   0  0  0  0  0  0  0  0  0  0  0  0
    2.1000    2.4249    0.0000 C   0  0  0  0  0  0  0  0  0  0  0  0
    0.7000    2.4249    0.0000 C   0  0  0  0  0  0  0  0  0  0  0  0
    0.0000    1.2124    0.0000 C   0  0  0  0  0  0  0  0  0  0  0  0
    0.7000    0.0000    0.0000 C   0  0  0  0  0  0  0  0  0  0  0  0
    2.1000    0.0000    0.0000 C   0  0  0  0  0  0  0  0  0  0  0  0
    2.8000    3.6373    0.0000 C   0  0  0  0  0  0  0  0  0  0  0  0
    2.1000    4.8497    0.0000 C   0  0  0  0  0  0  0  0  0  0  0  0
    0.7000    4.8497    0.0000 C   0  0  0  0  0  0  0  0  0  0  0  0
    0.0000    3.6373    0.0000 C   0  0  0  0  0  0  0  0  0  0  0  0
    9.1635    1.1131    0.0000 C   0  0  0  0  0  0  0  0  0  0  0  0
   10.3760    1.8131    0.0000 C   0  0  0  0  0  0  0  0  0  0  0  0
  1  2  1  0  0  0  0
  2  3  1  0  0  0  0
  2  4  2  0  0  0  0
  3  5  1  0  0  0  0
  1  6  1  0  0  0  0
  6  7  2  0  0  0  0
  7  8  1  0  0  0  0
  8  9  2  0  0  0  0
  9 10  1  0  0  0  0
 10 11  2  0  0  0  0
 11  6  1  0  0  0  0
  7 12  1  0  0  0  0
 12 13  2  0  0  0  0
 13 14  1  0  0  0  0
 14 15  2  0  0  0  0
 15  8  1  0  0  0  0
  5 16  1  0  0  0  0
 16 17  1  0  0  0  0
M  END
> <Molecule Name>
253

> <CDD Number>
CDD-16055

> <Human_sEH_IC50_uM>
0.28

> <Mouse_sEH_IC50_uM>
0.1

$$$$

SketchEl molfile

 15 16  0  0  0  0  0  0  0  0999 V2000
    4.5363    1.2124    0.0000 N   0  0  0  0  0  0  0  0  0  0  0  0
    5.7487    1.9124    0.0000 C   0  0  0  0  0  0  0  0  0  0  0  0
    6.9612    1.2124    0.0000 N   0  0  0  0  0  0  0  0  0  0  0  0
    5.7487    3.3124    0.0000 O   0  0  0  0  0  0  0  0  0  0  0  0
    7.9511    1.8131    0.0000 C   0  0  0  0  0  0  0  0  0  0  0  0
    2.8000    1.2124    0.0000 C   0  0  0  0  0  0  0  0  0  0  0  0
    2.1000    2.4249    0.0000 C   0  0  0  0  0  0  0  0  0  0  0  0
    0.7000    2.4249    0.0000 C   0  0  0  0  0  0  0  0  0  0  0  0
    0.0000    1.2124    0.0000 C   0  0  0  0  0  0  0  0  0  0  0  0
    0.7000    0.0000    0.0000 C   0  0  0  0  0  0  0  0  0  0  0  0
    2.1000    0.0000    0.0000 C   0  0  0  0  0  0  0  0  0  0  0  0
    2.8000    3.6373    0.0000 C   0  0  0  0  0  0  0  0  0  0  0  0
    2.1000    4.8497    0.0000 C   0  0  0  0  0  0  0  0  0  0  0  0
    0.7000    4.8497    0.0000 C   0  0  0  0  0  0  0  0  0  0  0  0
    0.0000    3.6373    0.0000 C   0  0  0  0  0  0  0  0  0  0  0  0
  1  2  1  0  0  0  0
  2  3  1  0  0  0  0
  2  4  2  0  0  0  0
  3  5  1  0  0  0  0
  1  6  1  0  0  0  0
  6  7  2  0  0  0  0
  7  8  1  0  0  0  0
  8  9  2  0  0  0  0
  9 10  1  0  0  0  0
 10 11  2  0  0  0  0
 11  6  1  0  0  0  0
  7 12  1  0  0  0  0
 12 13  2  0  0  0  0
 13 14  1  0  0  0  0
 14 15  2  0  0  0  0
 15  8  1  0  0  0  0
M  END
> <Molecule Name>
252

> <CDD Number>
CDD-16053

> <Human_sEH_IC50_uM>
500.0

> <Mouse_sEH_IC50_uM>
500.0

$$$$

SketchEl molfile

 16 15  0  0  0  0  0  0  0  0999 V2000
    0.0000    0.0000    0.0000 C   0  0  0  0  0  0  0  0  0  0  0  0
    1.2124    0.7000    0.0000 C   0  0  0  0  0  0  0  0  0  0  0  0
    2.4249    0.0000    0.0000 C   0  0  0  0  0  0  0  0  0  0  0  0
    3.6373    0.7000    0.0000 C   0  0  0  0  0  0  0  0  0  0  0  0
    4.8497    0.0000    0.0000 C   0  0  0  0  0  0  0  0  0  0  0  0
    6.0622    0.7000    0.0000 C   0  0  0  0  0  0  0  0  0  0  0  0
    7.2746    0.0000    0.0000 C   0  0  0  0  0  0  0  0  0  0  0  0
    8.4870    0.7000    0.0000 C   0  0  0  0  0  0  0  0  0  0  0  0
    9.6995    0.0000    0.0000 C   0  0  0  0  0  0  0  0  0  0  0  0
   10.9119    0.7000    0.0000 C   0  0  0  0  0  0  0  0  0  0  0  0
   12.1244    0.0000    0.0000 N   0  0  0  0  0  0  0  0  0  0  0  0
   13.3368    0.7000    0.0000 C   0  0  0  0  0  0  0  0  0  0  0  0
   14.5492    0.0000    0.0000 C   0  0  0  0  0  0  0  0  0  0  0  0
   13.3368    2.1000    0.0000 O   0  0  0  0  0  0  0  0  0  0  0  0
   15.7617    0.7000    0.0000 C   0  0  0  0  0  0  0  0  0  0  0  0
   16.9741    0.0000    0.0000 C   0  0  0  0  0  0  0  0  0  0  0  0
  1  2  1  0  0  0  0
  2  3  1  0  0  0  0
  3  4  1  0  0  0  0
  4  5  1  0  0  0  0
  5  6  1  0  0  0  0
  6  7  1  0  0  0  0
  7  8  1  0  0  0  0
  8  9  1  0  0  0  0
  9 10  1  0  0  0  0
 10 11  1  0  0  0  0
 11 12  1  0  0  0  0
 12 13  1  0  0  0  0
 12 14  2  0  0  0  0
 13 15  1  0  0  0  0
 15 16  1  0  0  0  0
M  END
> <Molecule Name>
250

> <CDD Number>
CDD-15642

> <Human_sEH_IC50_uM>
2.9

> <Mouse_sEH_IC50_uM>
0.33

$$$$

SketchEl molfile

 15 14  0  0  0  0  0  0  0  0999 V2000
    0.0000    0.0000    0.0000 C   0  0  0  0  0  0  0  0  0  0  0  0
    1.2124    0.7000    0.0000 C   0  0  0  0  0  0  0  0  0  0  0  0
    2.4249    0.0000    0.0000 C   0  0  0  0  0  0  0  0  0  0  0  0
    3.6373    0.7000    0.0000 C   0  0  0  0  0  0  0  0  0  0  0  0
    4.8497    0.0000    0.0000 C   0  0  0  0  0  0  0  0  0  0  0  0
    6.0622    0.7000    0.0000 C   0  0  0  0  0  0  0  0  0  0  0  0
    7.2746    0.0000    0.0000 C   0  0  0  0  0  0  0  0  0  0  0  0
    8.4870    0.7000    0.0000 C   0  0  0  0  0  0  0  0  0  0  0  0
    9.6995    0.0000    0.0000 C   0  0  0  0  0  0  0  0  0  0  0  0
   10.9119    0.7000    0.0000 C   0  0  0  0  0  0  0  0  0  0  0  0
   12.1244    0.0000    0.0000 O   0  0  0  0  0  0  0  0  0  0  0  0
   13.3368    0.7000    0.0000 C   0  0  0  0  0  0  0  0  0  0  0  0
   14.5492    0.0000    0.0000 N   0  0  0  0  0  0  0  0  0  0  0  0
   15.7617    0.7000    0.0000 C   0  0  0  0  0  0  0  0  0  0  0  0
   13.3368    2.1000    0.0000 O   0  0  0  0  0  0  0  0  0  0  0  0
  1  2  1  0  0  0  0
  2  3  1  0  0  0  0
  3  4  1  0  0  0  0
  4  5  1  0  0  0  0
  5  6  1  0  0  0  0
  6  7  1  0  0  0  0
  7  8  1  0  0  0  0
  8  9  1  0  0  0  0
  9 10  1  0  0  0  0
 10 11  1  0  0  0  0
 11 12  1  0  0  0  0
 12 13  1  0  0  0  0
 13 14  1  0  0  0  0
 12 15  2  0  0  0  0
M  END
> <Molecule Name>
248

> <CDD Number>
CDD-16075

> <Human_sEH_IC50_uM>
2.9

> <Mouse_sEH_IC50_uM>
0.33

$$$$

SketchEl molfile

 17 16  0  0  0  0  0  0  0  0999 V2000
    0.0000    0.0000    0.0000 C   0  0  0  0  0  0  0  0  0  0  0  0
    1.2124    0.7000    0.0000 C   0  0  0  0  0  0  0  0  0  0  0  0
    2.4249    0.0000    0.0000 C   0  0  0  0  0  0  0  0  0  0  0  0
    3.6373    0.7000    0.0000 C   0  0  0  0  0  0  0  0  0  0  0  0
    4.8497    0.0000    0.0000 C   0  0  0  0  0  0  0  0  0  0  0  0
    6.0622    0.7000    0.0000 C   0  0  0  0  0  0  0  0  0  0  0  0
    7.2746    0.0000    0.0000 C   0  0  0  0  0  0  0  0  0  0  0  0
    8.4870    0.7000    0.0000 C   0  0  0  0  0  0  0  0  0  0  0  0
    9.6995    0.0000    0.0000 C   0  0  0  0  0  0  0  0  0  0  0  0
   10.9119    0.7000    0.0000 C   0  0  0  0  0  0  0  0  0  0  0  0
   12.1244    0.0000    0.0000 O   0  0  0  0  0  0  0  0  0  0  0  0
   13.3368    0.7000    0.0000 C   0  0  0  0  0  0  0  0  0  0  0  0
   14.5492    0.0000    0.0000 N   0  0  0  0  0  0  0  0  0  0  0  0
   15.7617    0.7000    0.0000 C   0  0  0  0  0  0  0  0  0  0  0  0
   13.3368    2.1000    0.0000 O   0  0  0  0  0  0  0  0  0  0  0  0
   16.9741    0.0000    0.0000 C   0  0  0  0  0  0  0  0  0  0  0  0
   18.1865    0.7000    0.0000 C   0  0  0  0  0  0  0  0  0  0  0  0
  1  2  1  0  0  0  0
  2  3  1  0  0  0  0
  3  4  1  0  0  0  0
  4  5  1  0  0  0  0
  5  6  1  0  0  0  0
  6  7  1  0  0  0  0
  7  8  1  0  0  0  0
  8  9  1  0  0  0  0
  9 10  1  0  0  0  0
 10 11  1  0  0  0  0
 11 12  1  0  0  0  0
 12 13  1  0  0  0  0
 13 14  1  0  0  0  0
 12 15  2  0  0  0  0
 14 16  1  0  0  0  0
 16 17  1  0  0  0  0
M  END
> <Molecule Name>
247

> <CDD Number>
CDD-16081

> <Human_sEH_IC50_uM>
400.0

> <Mouse_sEH_IC50_uM>
380.0

$$$$

SketchEl molfile

 23 22  0  0  0  0  0  0  0  0999 V2000
    4.8497    0.1987    0.0000 C   0  0  0  0  0  0  0  0  0  0  0  0
    6.0622    0.8987    0.0000 C   0  0  0  0  0  0  0  0  0  0  0  0
    7.2746    0.1987    0.0000 C   0  0  0  0  0  0  0  0  0  0  0  0
    8.4870    0.8987    0.0000 C   0  0  0  0  0  0  0  0  0  0  0  0
    9.6995    0.1987    0.0000 C   0  0  0  0  0  0  0  0  0  0  0  0
   10.9119    0.8987    0.0000 C   0  0  0  0  0  0  0  0  0  0  0  0
   12.1244    0.1987    0.0000 C   0  0  0  0  0  0  0  0  0  0  0  0
   13.3368    0.8987    0.0000 C   0  0  0  0  0  0  0  0  0  0  0  0
   14.5492    0.1987    0.0000 C   0  0  0  0  0  0  0  0  0  0  0  0
   15.7617    0.8987    0.0000 C   0  0  0  0  0  0  0  0  0  0  0  0
   16.9741    0.1987    0.0000 C   0  0  0  0  0  0  0  0  0  0  0  0
   18.1865    0.8987    0.0000 C   0  0  0  0  0  0  0  0  0  0  0  0
   19.3990    0.1987    0.0000 N   0  0  0  0  0  0  0  0  0  0  0  0
   20.3889    0.7993    0.0000 C   0  0  0  0  0  0  0  0  0  0  0  0
   21.6014    0.0993    0.0000 N   0  0  0  0  0  0  0  0  0  0  0  0
   20.3889    2.1993    0.0000 O   0  0  0  0  0  0  0  0  0  0  0  0
    3.6373    0.8987    0.0000 C   0  0  0  0  0  0  0  0  0  0  0  0
    2.4249    0.1987    0.0000 C   0  0  0  0  0  0  0  0  0  0  0  0
    1.2124    0.8987    0.0000 C   0  0  0  0  0  0  0  0  0  0  0  0
    0.0000    0.1987    0.0000 C   0  0  0  0  0  0  0  0  0  0  0  0
   22.5913    0.7000    0.0000 C   0  0  0  0  0  0  0  0  0  0  0  0
   23.8037    0.0000    0.0000 C   0  0  0  0  0  0  0  0  0  0  0  0
   25.0162    0.7000    0.0000 C   0  0  0  0  0  0  0  0  0  0  0  0
  1  2  1  0  0  0  0
  2  3  1  0  0  0  0
  3  4  1  0  0  0  0
  4  5  1  0  0  0  0
  5  6  1  0  0  0  0
  6  7  1  0  0  0  0
  7  8  1  0  0  0  0
  8  9  1  0  0  0  0
  9 10  1  0  0  0  0
 10 11  1  0  0  0  0
 11 12  1  0  0  0  0
 12 13  1  0  0  0  0
 13 14  1  0  0  0  0
 14 15  1  0  0  0  0
 14 16  2  0  0  0  0
  1 17  1  0  0  0  0
 17 18  1  0  0  0  0
 18 19  1  0  0  0  0
 19 20  1  0  0  0  0
 15 21  1  0  0  0  0
 21 22  1  0  0  0  0
 22 23  1  0  0  0  0
M  END
> <Molecule Name>
244

> <CDD Number>
CDD-15864

> <Human_sEH_IC50_uM>
500.0

> <Mouse_sEH_IC50_uM>
500.0

$$$$

SketchEl molfile

 21 20  0  0  0  0  0  0  0  0999 V2000
    4.8497    0.0993    0.0000 C   0  0  0  0  0  0  0  0  0  0  0  0
    6.0622    0.7993    0.0000 C   0  0  0  0  0  0  0  0  0  0  0  0
    7.2746    0.0993    0.0000 C   0  0  0  0  0  0  0  0  0  0  0  0
    8.4870    0.7993    0.0000 C   0  0  0  0  0  0  0  0  0  0  0  0
    9.6995    0.0993    0.0000 C   0  0  0  0  0  0  0  0  0  0  0  0
   10.9119    0.7993    0.0000 C   0  0  0  0  0  0  0  0  0  0  0  0
   12.1244    0.0993    0.0000 C   0  0  0  0  0  0  0  0  0  0  0  0
   13.3368    0.7993    0.0000 C   0  0  0  0  0  0  0  0  0  0  0  0
   14.5492    0.0993    0.0000 C   0  0  0  0  0  0  0  0  0  0  0  0
   15.7617    0.7993    0.0000 C   0  0  0  0  0  0  0  0  0  0  0  0
   16.9741    0.0993    0.0000 C   0  0  0  0  0  0  0  0  0  0  0  0
   18.1865    0.7993    0.0000 C   0  0  0  0  0  0  0  0  0  0  0  0
   19.3990    0.0993    0.0000 N   0  0  0  0  0  0  0  0  0  0  0  0
   20.3889    0.7000    0.0000 C   0  0  0  0  0  0  0  0  0  0  0  0
   21.6014    0.0000    0.0000 N   0  0  0  0  0  0  0  0  0  0  0  0
   20.3889    2.1000    0.0000 O   0  0  0  0  0  0  0  0  0  0  0  0
    3.6373    0.7993    0.0000 C   0  0  0  0  0  0  0  0  0  0  0  0
    2.4249    0.0993    0.0000 C   0  0  0  0  0  0  0  0  0  0  0  0
    1.2124    0.7993    0.0000 C   0  0  0  0  0  0  0  0  0  0  0  0
    0.0000    0.0993    0.0000 C   0  0  0  0  0  0  0  0  0  0  0  0
   22.5913    0.6007    0.0000 C   0  0  0  0  0  0  0  0  0  0  0  0
  1  2  1  0  0  0  0
  2  3  1  0  0  0  0
  3  4  1  0  0  0  0
  4  5  1  0  0  0  0
  5  6  1  0  0  0  0
  6  7  1  0  0  0  0
  7  8  1  0  0  0  0
  8  9  1  0  0  0  0
  9 10  1  0  0  0  0
 10 11  1  0  0  0  0
 11 12  1  0  0  0  0
 12 13  1  0  0  0  0
 13 14  1  0  0  0  0
 14 15  1  0  0  0  0
 14 16  2  0  0  0  0
  1 17  1  0  0  0  0
 17 18  1  0  0  0  0
 18 19  1  0  0  0  0
 19 20  1  0  0  0  0
 15 21  1  0  0  0  0
M  END
> <Molecule Name>
243

> <CDD Number>
CDD-15863

> <Human_sEH_IC50_uM>
500.0

> <Mouse_sEH_IC50_uM>
500.0

$$$$

SketchEl molfile

 21 20  0  0  0  0  0  0  0  0999 V2000
    2.4249    0.1721    0.0000 C   0  0  0  0  0  0  0  0  0  0  0  0
    3.6373    0.8721    0.0000 C   0  0  0  0  0  0  0  0  0  0  0  0
    4.8497    0.1721    0.0000 C   0  0  0  0  0  0  0  0  0  0  0  0
    6.0622    0.8721    0.0000 C   0  0  0  0  0  0  0  0  0  0  0  0
    7.2746    0.1721    0.0000 C   0  0  0  0  0  0  0  0  0  0  0  0
    8.4870    0.8721    0.0000 C   0  0  0  0  0  0  0  0  0  0  0  0
    9.6995    0.1721    0.0000 C   0  0  0  0  0  0  0  0  0  0  0  0
   10.9119    0.8721    0.0000 C   0  0  0  0  0  0  0  0  0  0  0  0
   12.1244    0.1721    0.0000 C   0  0  0  0  0  0  0  0  0  0  0  0
   13.3368    0.8721    0.0000 C   0  0  0  0  0  0  0  0  0  0  0  0
   14.5492    0.1721    0.0000 C   0  0  0  0  0  0  0  0  0  0  0  0
   15.7617    0.8721    0.0000 C   0  0  0  0  0  0  0  0  0  0  0  0
   16.9741    0.1721    0.0000 N   0  0  0  0  0  0  0  0  0  0  0  0
   17.9640    0.7728    0.0000 C   0  0  0  0  0  0  0  0  0  0  0  0
   19.1765    0.0728    0.0000 N   0  0  0  0  0  0  0  0  0  0  0  0
   17.9640    2.1728    0.0000 O   0  0  0  0  0  0  0  0  0  0  0  0
   20.1664    0.6734    0.0000 C   0  0  0  0  0  0  0  0  0  0  0  0
   21.3938    0.0000    0.0000 C   0  0  0  0  0  0  0  0  0  0  0  0
   22.5907    0.7262    0.0000 C   0  0  0  0  0  0  0  0  0  0  0  0
    1.2124    0.8721    0.0000 C   0  0  0  0  0  0  0  0  0  0  0  0
    0.0000    0.1721    0.0000 C   0  0  0  0  0  0  0  0  0  0  0  0
  1  2  1  0  0  0  0
  2  3  1  0  0  0  0
  3  4  1  0  0  0  0
  4  5  1  0  0  0  0
  5  6  1  0  0  0  0
  6  7  1  0  0  0  0
  7  8  1  0  0  0  0
  8  9  1  0  0  0  0
  9 10  1  0  0  0  0
 10 11  1  0  0  0  0
 11 12  1  0  0  0  0
 12 13  1  0  0  0  0
 13 14  1  0  0  0  0
 14 15  1  0  0  0  0
 14 16  2  0  0  0  0
 15 17  1  0  0  0  0
 17 18  1  0  0  0  0
 18 19  1  0  0  0  0
  1 20  1  0  0  0  0
 20 21  1  0  0  0  0
M  END
> <Molecule Name>
242

> <CDD Number>
CDD-15861

> <Human_sEH_IC50_uM>
500.0

> <Mouse_sEH_IC50_uM>
500.0

$$$$

SketchEl molfile

 19 18  0  0  0  0  0  0  0  0999 V2000
    2.4249    0.0993    0.0000 C   0  0  0  0  0  0  0  0  0  0  0  0
    3.6373    0.7993    0.0000 C   0  0  0  0  0  0  0  0  0  0  0  0
    4.8497    0.0993    0.0000 C   0  0  0  0  0  0  0  0  0  0  0  0
    6.0622    0.7993    0.0000 C   0  0  0  0  0  0  0  0  0  0  0  0
    7.2746    0.0993    0.0000 C   0  0  0  0  0  0  0  0  0  0  0  0
    8.4870    0.7993    0.0000 C   0  0  0  0  0  0  0  0  0  0  0  0
    9.6995    0.0993    0.0000 C   0  0  0  0  0  0  0  0  0  0  0  0
   10.9119    0.7993    0.0000 C   0  0  0  0  0  0  0  0  0  0  0  0
   12.1244    0.0993    0.0000 C   0  0  0  0  0  0  0  0  0  0  0  0
   13.3368    0.7993    0.0000 C   0  0  0  0  0  0  0  0  0  0  0  0
   14.5492    0.0993    0.0000 C   0  0  0  0  0  0  0  0  0  0  0  0
   15.7617    0.7993    0.0000 C   0  0  0  0  0  0  0  0  0  0  0  0
   16.9741    0.0993    0.0000 N   0  0  0  0  0  0  0  0  0  0  0  0
   17.9640    0.7000    0.0000 C   0  0  0  0  0  0  0  0  0  0  0  0
   19.1765    0.0000    0.0000 N   0  0  0  0  0  0  0  0  0  0  0  0
   17.9640    2.1000    0.0000 O   0  0  0  0  0  0  0  0  0  0  0  0
   20.1664    0.6007    0.0000 C   0  0  0  0  0  0  0  0  0  0  0  0
    1.2124    0.7993    0.0000 C   0  0  0  0  0  0  0  0  0  0  0  0
    0.0000    0.0993    0.0000 C   0  0  0  0  0  0  0  0  0  0  0  0
  1  2  1  0  0  0  0
  2  3  1  0  0  0  0
  3  4  1  0  0  0  0
  4  5  1  0  0  0  0
  5  6  1  0  0  0  0
  6  7  1  0  0  0  0
  7  8  1  0  0  0  0
  8  9  1  0  0  0  0
  9 10  1  0  0  0  0
 10 11  1  0  0  0  0
 11 12  1  0  0  0  0
 12 13  1  0  0  0  0
 13 14  1  0  0  0  0
 14 15  1  0  0  0  0
 14 16  2  0  0  0  0
 15 17  1  0  0  0  0
  1 18  1  0  0  0  0
 18 19  1  0  0  0  0
M  END
> <Molecule Name>
241

> <CDD Number>
CDD-15860

> <Human_sEH_IC50_uM>
500.0

> <Mouse_sEH_IC50_uM>
500.0

$$$$

SketchEl molfile

 11 12  0  0  0  0  0  0  0  0999 V2000
    2.4249    3.5000    0.0000 C   0  0  0  0  0  0  0  0  0  0  0  0
    2.4249    2.1000    0.0000 C   0  0  0  0  0  0  0  0  0  0  0  0
    3.6373    1.4000    0.0000 C   0  0  0  0  0  0  0  0  0  0  0  0
    4.8497    2.1000    0.0000 C   0  0  0  0  0  0  0  0  0  0  0  0
    4.8497    3.5000    0.0000 C   0  0  0  0  0  0  0  0  0  0  0  0
    3.6373    4.2000    0.0000 C   0  0  0  0  0  0  0  0  0  0  0  0
    1.2124    4.2000    0.0000 C   0  0  0  0  0  0  0  0  0  0  0  0
    0.0000    3.5000    0.0000 O   0  0  0  0  0  0  0  0  0  0  0  0
    3.6373    5.6000    0.0000 O   0  0  0  0  0  0  0  0  0  0  0  0
    6.0622    2.8000    0.0000 O   0  0  0  0  0  0  0  0  0  0  0  0
    3.6373    0.0000    0.0000 O   0  0  0  0  0  0  0  0  0  0  0  0
  1  2  2  0  0  0  0
  2  3  1  0  0  0  0
  3  4  1  0  0  0  0
  4  5  1  0  0  0  0
  5  6  1  0  0  0  0
  6  1  1  0  0  0  0
  1  7  1  0  0  0  0
  7  8  1  0  0  0  0
  6  9  2  0  0  0  0
  5 10  1  6  0  0  0
  4 10  1  6  0  0  0
  3 11  1  6  0  0  0
M  END
> <Molecule Name>
240

> <CDD Number>
CDD-15641

> <Human_sEH_IC50_uM>
500.0

> <Mouse_sEH_IC50_uM>
250.0

$$$$

SketchEl molfile

 15 16  0  0  0  0  0  0  0  0999 V2000
    7.2746    0.9899    0.0000 C   0  0  0  0  0  0  0  0  0  0  0  0
    8.2646    0.0000    0.0000 C   0  0  0  0  0  0  0  0  0  0  0  0
    9.4770    0.7000    0.0000 N   0  0  0  0  0  0  0  0  0  0  0  0
    9.1147    2.0523    0.0000 N   0  0  0  0  0  0  0  0  0  0  0  0
    7.6370    2.3422    0.0000 S   0  0  0  0  0  0  0  0  0  0  0  0
    6.0622    0.2899    0.0000 N   0  0  0  0  0  0  0  0  0  0  0  0
    4.8497    0.9899    0.0000 C   0  0  0  0  0  0  0  0  0  0  0  0
    3.6373    0.2899    0.0000 N   0  0  0  0  0  0  0  0  0  0  0  0
    4.8497    2.3899    0.0000 O   0  0  0  0  0  0  0  0  0  0  0  0
    2.4249    0.9899    0.0000 C   0  0  0  0  0  0  0  0  0  0  0  0
    2.4249    2.3899    0.0000 C   0  0  0  0  0  0  0  0  0  0  0  0
    1.2124    3.0899    0.0000 C   0  0  0  0  0  0  0  0  0  0  0  0
    0.0000    2.3899    0.0000 C   0  0  0  0  0  0  0  0  0  0  0  0
    0.0000    0.9899    0.0000 C   0  0  0  0  0  0  0  0  0  0  0  0
    1.2124    0.2899    0.0000 C   0  0  0  0  0  0  0  0  0  0  0  0
  1  2  2  0  0  0  0
  2  3  1  0  0  0  0
  3  4  2  0  0  0  0
  1  5  1  0  0  0  0
  4  5  1  0  0  0  0
  1  6  1  0  0  0  0
  6  7  1  0  0  0  0
  7  8  1  0  0  0  0
  7  9  2  0  0  0  0
  8 10  1  0  0  0  0
 10 11  2  0  0  0  0
 11 12  1  0  0  0  0
 12 13  2  0  0  0  0
 13 14  1  0  0  0  0
 14 15  2  0  0  0  0
 15 10  1  0  0  0  0
M  END
> <Molecule Name>
235

> <CDD Number>
CDD-15710

> <Human_sEH_IC50_uM>
500.0

> <Mouse_sEH_IC50_uM>
500.0

$$$$

SketchEl molfile

 22 23  0  0  0  0  0  0  0  0999 V2000
    0.0000    2.1000    0.0000 C   0  0  0  0  0  0  0  0  0  0  0  0
    0.0000    0.7000    0.0000 C   0  0  0  0  0  0  0  0  0  0  0  0
    1.2124    0.0000    0.0000 C   0  0  0  0  0  0  0  0  0  0  0  0
    2.4249    0.7000    0.0000 C   0  0  0  0  0  0  0  0  0  0  0  0
    2.4249    2.1000    0.0000 C   0  0  0  0  0  0  0  0  0  0  0  0
    1.2124    2.8000    0.0000 C   0  0  0  0  0  0  0  0  0  0  0  0
    3.6373    0.0000    0.0000 O   0  0  0  0  0  0  0  0  0  0  0  0
    4.8497    0.7000    0.0000 C   0  0  0  0  0  0  0  0  0  0  0  0
    6.0622    0.0000    0.0000 C   0  0  0  0  0  0  0  0  0  0  0  0
    7.2746    0.7000    0.0000 C   0  0  0  0  0  0  0  0  0  0  0  0
    7.2746    2.1000    0.0000 C   0  0  0  0  0  0  0  0  0  0  0  0
    6.0622    2.8000    0.0000 C   0  0  0  0  0  0  0  0  0  0  0  0
    4.8497    2.1000    0.0000 C   0  0  0  0  0  0  0  0  0  0  0  0
    8.4870    2.8000    0.0000 O   0  0  0  0  0  0  0  0  0  0  0  0
    9.6995    2.1000    0.0000 C   0  0  0  0  0  0  0  0  0  0  0  0
   10.9119    2.8000    0.0000 C   0  0  0  0  0  0  0  0  0  0  0  0
   12.1244    2.1000    0.0000 N   0  0  0  0  0  0  0  0  0  0  0  0
   13.3368    2.8000    0.0000 C   0  0  0  0  0  0  0  0  0  0  0  0
   14.5492    2.1000    0.0000 O   0  0  0  0  0  0  0  0  0  0  0  0
   15.7617    2.8000    0.0000 C   0  0  0  0  0  0  0  0  0  0  0  0
   16.9741    2.1000    0.0000 C   0  0  0  0  0  0  0  0  0  0  0  0
   13.3368    4.2000    0.0000 O   0  0  0  0  0  0  0  0  0  0  0  0
  1  2  2  0  0  0  0
  2  3  1  0  0  0  0
  3  4  2  0  0  0  0
  4  5  1  0  0  0  0
  5  6  2  0  0  0  0
  6  1  1  0  0  0  0
  4  7  1  0  0  0  0
  7  8  1  0  0  0  0
  8  9  2  0  0  0  0
  9 10  1  0  0  0  0
 10 11  2  0  0  0  0
 11 12  1  0  0  0  0
 12 13  2  0  0  0  0
 13  8  1  0  0  0  0
 11 14  1  0  0  0  0
 14 15  1  0  0  0  0
 15 16  1  0  0  0  0
 16 17  1  0  0  0  0
 17 18  1  0  0  0  0
 18 19  1  0  0  0  0
 19 20  1  0  0  0  0
 20 21  1  0  0  0  0
 18 22  2  0  0  0  0
M  END
> <Molecule Name>
234

> <CDD Number>
CDD-15709

> <Human_sEH_IC50_uM>
65.0

> <Mouse_sEH_IC50_uM>
113.0

$$$$

SketchEl molfile

 18 19  0  0  0  0  0  0  0  0999 V2000
    0.0000    4.7322    0.0000 C   0  0  0  0  0  0  0  0  0  0  0  0
    0.0000    3.3322    0.0000 C   0  0  0  0  0  0  0  0  0  0  0  0
    1.2124    2.6322    0.0000 C   0  0  0  0  0  0  0  0  0  0  0  0
    2.4249    3.3322    0.0000 C   0  0  0  0  0  0  0  0  0  0  0  0
    2.4249    4.7322    0.0000 C   0  0  0  0  0  0  0  0  0  0  0  0
    1.2124    5.4322    0.0000 C   0  0  0  0  0  0  0  0  0  0  0  0
    3.6373    2.6322    0.0000 N   0  0  0  0  0  0  0  0  0  0  0  0
    4.8497    3.3322    0.0000 C   0  0  0  0  0  0  0  0  0  0  0  0
    6.0622    2.6322    0.0000 O   0  0  0  0  0  0  0  0  0  0  0  0
    4.8497    4.7322    0.0000 O   0  0  0  0  0  0  0  0  0  0  0  0
    7.2746    3.3322    0.0000 N   0  0  0  0  0  0  0  0  0  0  0  0
    8.6746    3.3322    0.0000 C   0  0  0  0  0  0  0  0  0  0  0  0
    9.6646    2.3422    0.0000 C   0  0  0  0  0  0  0  0  0  0  0  0
    9.3022    0.9899    0.0000 C   0  0  0  0  0  0  0  0  0  0  0  0
   10.2922    0.0000    0.0000 C   0  0  0  0  0  0  0  0  0  0  0  0
   11.6445    0.3623    0.0000 C   0  0  0  0  0  0  0  0  0  0  0  0
   12.0068    1.7146    0.0000 C   0  0  0  0  0  0  0  0  0  0  0  0
   11.0169    2.7046    0.0000 C   0  0  0  0  0  0  0  0  0  0  0  0
  1  2  1  0  0  0  0
  2  3  1  0  0  0  0
  3  4  1  0  0  0  0
  4  5  1  0  0  0  0
  5  6  1  0  0  0  0
  6  1  1  0  0  0  0
  4  7  1  0  0  0  0
  7  8  1  0  0  0  0
  8  9  1  0  0  0  0
  8 10  2  0  0  0  0
  9 11  1  0  0  0  0
 11 12  2  0  0  0  0
 12 13  1  0  0  0  0
 13 14  2  0  0  0  0
 14 15  1  0  0  0  0
 15 16  2  0  0  0  0
 16 17  1  0  0  0  0
 17 18  2  0  0  0  0
 18 13  1  0  0  0  0
M  END
> <Molecule Name>
233

> <CDD Number>
CDD-15708

> <Human_sEH_IC50_uM>
4.1

> <Mouse_sEH_IC50_uM>
29.0

$$$$

SketchEl molfile

 20 19  0  0  0  0  0  0  0  0999 V2000
    0.0000    0.7000    0.0000 C   0  0  0  0  0  0  0  0  0  0  0  0
    1.2124    0.0000    0.0000 C   0  0  0  0  0  0  0  0  0  0  0  0
    2.4249    0.7000    0.0000 C   0  0  0  0  0  0  0  0  0  0  0  0
    3.6373    0.0000    0.0000 C   0  0  0  0  0  0  0  0  0  0  0  0
    4.8497    0.7000    0.0000 C   0  0  0  0  0  0  0  0  0  0  0  0
    6.0622    0.0000    0.0000 C   0  0  0  0  0  0  0  0  0  0  0  0
    7.2746    0.7000    0.0000 C   0  0  0  0  0  0  0  0  0  0  0  0
    8.4870    0.0000    0.0000 C   0  0  0  0  0  0  0  0  0  0  0  0
    9.6995    0.7000    0.0000 C   0  0  0  0  0  0  0  0  0  0  0  0
   10.9119    0.0000    0.0000 C   0  0  0  0  0  0  0  0  0  0  0  0
   12.1244    0.7000    0.0000 C   0  0  0  0  0  0  0  0  0  0  0  0
   13.3368    0.0000    0.0000 C   0  0  0  0  0  0  0  0  0  0  0  0
   14.5492    0.7000    0.0000 C   0  0  0  0  0  0  0  0  0  0  0  0
   15.7617    0.0000    0.0000 N   0  0  0  0  0  0  0  0  0  0  0  0
   16.9741    0.7000    0.0000 C   0  0  0  0  0  0  0  0  0  0  0  0
   18.1865    0.0000    0.0000 N   0  0  0  0  0  0  0  0  0  0  0  0
   19.3990    0.7000    0.0000 C   0  0  0  0  0  0  0  0  0  0  0  0
   20.6114    0.0000    0.0000 C   0  0  0  0  0  0  0  0  0  0  0  0
   21.8238    0.7000    0.0000 Br  0  0  0  0  0  0  0  0  0  0  0  0
   16.9741    2.1000    0.0000 O   0  0  0  0  0  0  0  0  0  0  0  0
  1  2  1  0  0  0  0
  2  3  1  0  0  0  0
  3  4  1  0  0  0  0
  4  5  1  0  0  0  0
  5  6  1  0  0  0  0
  6  7  1  0  0  0  0
  7  8  1  0  0  0  0
  8  9  1  0  0  0  0
  9 10  1  0  0  0  0
 10 11  1  0  0  0  0
 11 12  1  0  0  0  0
 12 13  1  0  0  0  0
 13 14  1  0  0  0  0
 14 15  1  0  0  0  0
 15 16  1  0  0  0  0
 16 17  1  0  0  0  0
 17 18  1  0  0  0  0
 18 19  1  0  0  0  0
 15 20  2  0  0  0  0
M  END
> <Molecule Name>
232

> <CDD Number>
CDD-15707

> <Human_sEH_IC50_uM>
18.0

> <Mouse_sEH_IC50_uM>
5.8

$$$$

SketchEl molfile

 14 13  0  0  0  0  0  0  0  0999 V2000
    0.0000    0.0000    0.0000 C   0  0  0  0  0  0  0  0  0  0  0  0
    1.2124    0.7000    0.0000 C   0  0  0  0  0  0  0  0  0  0  0  0
    2.4249    0.0000    0.0000 C   0  0  0  0  0  0  0  0  0  0  0  0
    3.6373    0.7000    0.0000 C   0  0  0  0  0  0  0  0  0  0  0  0
    4.8497    0.0000    0.0000 C   0  0  0  0  0  0  0  0  0  0  0  0
    6.0622    0.7000    0.0000 C   0  0  0  0  0  0  0  0  0  0  0  0
    7.2746    0.0000    0.0000 C   0  0  0  0  0  0  0  0  0  0  0  0
    8.4870    0.7000    0.0000 C   0  0  0  0  0  0  0  0  0  0  0  0
    9.6995    0.0000    0.0000 N   0  0  0  0  0  0  0  0  0  0  0  0
   10.9119    0.7000    0.0000 C   0  0  0  0  0  0  0  0  0  0  0  0
   12.1244    0.0000    0.0000 N   0  0  0  0  0  0  0  0  0  0  0  0
   13.3368    0.7000    0.0000 O   0  0  0  0  0  0  0  0  0  0  0  0
   14.5492    0.0000    0.0000 C   0  0  0  0  0  0  0  0  0  0  0  0
   10.9119    2.1000    0.0000 O   0  0  0  0  0  0  0  0  0  0  0  0
  1  2  1  0  0  0  0
  2  3  1  0  0  0  0
  3  4  1  0  0  0  0
  4  5  1  0  0  0  0
  5  6  1  0  0  0  0
  6  7  1  0  0  0  0
  7  8  1  0  0  0  0
  8  9  1  0  0  0  0
  9 10  1  0  0  0  0
 10 11  1  0  0  0  0
 11 12  1  0  0  0  0
 12 13  1  0  0  0  0
 10 14  2  0  0  0  0
M  END
> <Molecule Name>
231

> <CDD Number>
CDD-15706

> <Human_sEH_IC50_uM>
1.1

> <Mouse_sEH_IC50_uM>
0.26

$$$$

SketchEl molfile

 17 18  0  0  0  0  0  0  0  0999 V2000
    7.2746    2.1000    0.0000 C   0  0  0  0  0  0  0  0  0  0  0  0
    6.0622    1.4000    0.0000 N   0  0  0  0  0  0  0  0  0  0  0  0
    4.8497    2.1000    0.0000 C   0  0  0  0  0  0  0  0  0  0  0  0
    3.6373    1.4000    0.0000 N   0  0  0  0  0  0  0  0  0  0  0  0
    4.8497    3.5000    0.0000 O   0  0  0  0  0  0  0  0  0  0  0  0
    2.4249    2.1000    0.0000 C   0  0  0  0  0  0  0  0  0  0  0  0
    2.4249    3.5000    0.0000 C   0  0  0  0  0  0  0  0  0  0  0  0
    1.2124    4.2000    0.0000 C   0  0  0  0  0  0  0  0  0  0  0  0
    0.0000    3.5000    0.0000 C   0  0  0  0  0  0  0  0  0  0  0  0
    0.0000    2.1000    0.0000 C   0  0  0  0  0  0  0  0  0  0  0  0
    1.2124    1.4000    0.0000 C   0  0  0  0  0  0  0  0  0  0  0  0
    8.4870    1.4000    0.0000 C   0  0  0  0  0  0  0  0  0  0  0  0
    9.6995    2.1000    0.0000 C   0  0  0  0  0  0  0  0  0  0  0  0
    9.6995    3.5000    0.0000 C   0  0  0  0  0  0  0  0  0  0  0  0
    8.4870    4.2000    0.0000 C   0  0  0  0  0  0  0  0  0  0  0  0
    7.2746    3.5000    0.0000 C   0  0  0  0  0  0  0  0  0  0  0  0
    1.2124    0.0000    0.0000 C   0  0  0  0  0  0  0  0  0  0  0  0
  1  2  1  0  0  0  0
  2  3  1  0  0  0  0
  3  4  1  0  0  0  0
  3  5  2  0  0  0  0
  4  6  1  0  0  0  0
  6  7  1  0  0  0  0
  7  8  1  0  0  0  0
  8  9  1  0  0  0  0
  9 10  1  0  0  0  0
 10 11  1  0  0  0  0
 11  6  1  0  0  0  0
  1 12  2  0  0  0  0
 12 13  1  0  0  0  0
 13 14  2  0  0  0  0
 14 15  1  0  0  0  0
 15 16  2  0  0  0  0
 16  1  1  0  0  0  0
 11 17  1  0  0  0  0
M  END
> <Molecule Name>
227

> <CDD Number>
CDD-15992

> <Human_sEH_IC50_uM>
0.36

> <Mouse_sEH_IC50_uM>
0.16

$$$$

SketchEl molfile

 19 20  0  0  0  0  0  0  0  0999 V2000
    0.0000    2.8001    0.0000 C   0  0  0  0  0  0  0  0  0  0  0  0
    1.2124    2.1001    0.0000 C   0  0  0  0  0  0  0  0  0  0  0  0
    2.4249    2.8001    0.0000 C   0  0  0  0  0  0  0  0  0  0  0  0
    2.4249    4.2001    0.0000 C   0  0  0  0  0  0  0  0  0  0  0  0
    1.2124    4.9001    0.0000 C   0  0  0  0  0  0  0  0  0  0  0  0
    0.0000    4.2001    0.0000 C   0  0  0  0  0  0  0  0  0  0  0  0
    3.6373    2.1001    0.0000 N   0  0  0  0  0  0  0  0  0  0  0  0
    4.8497    2.8001    0.0000 C   0  0  0  0  0  0  0  0  0  0  0  0
    6.0622    2.1001    0.0000 O   0  0  0  0  0  0  0  0  0  0  0  0
    4.8497    4.2001    0.0000 O   0  0  0  0  0  0  0  0  0  0  0  0
    7.2746    2.8001    0.0000 C   0  0  0  0  0  0  0  0  0  0  0  0
    8.4870    2.1000    0.0000 C   0  0  0  0  0  0  0  0  0  0  0  0
    9.6994    2.8000    0.0000 S   0  0  0  0  0  0  0  0  0  0  0  0
   10.9118    2.1000    0.0000 C   0  0  0  0  0  0  0  0  0  0  0  0
   10.9118    0.7000    0.0000 C   0  0  0  0  0  0  0  0  0  0  0  0
   12.1243    0.0000    0.0000 C   0  0  0  0  0  0  0  0  0  0  0  0
   13.3367    0.7000    0.0000 C   0  0  0  0  0  0  0  0  0  0  0  0
   13.3367    2.1000    0.0000 C   0  0  0  0  0  0  0  0  0  0  0  0
   12.1243    2.8000    0.0000 C   0  0  0  0  0  0  0  0  0  0  0  0
  1  2  1  0  0  0  0
  2  3  1  0  0  0  0
  3  4  1  0  0  0  0
  4  5  1  0  0  0  0
  5  6  1  0  0  0  0
  6  1  1  0  0  0  0
  3  7  1  0  0  0  0
  7  8  1  0  0  0  0
  8  9  1  0  0  0  0
  8 10  2  0  0  0  0
  9 11  1  0  0  0  0
 11 12  1  0  0  0  0
 12 13  1  0  0  0  0
 13 14  1  0  0  0  0
 14 15  2  0  0  0  0
 15 16  1  0  0  0  0
 16 17  2  0  0  0  0
 17 18  1  0  0  0  0
 18 19  2  0  0  0  0
 19 14  1  0  0  0  0
M  END
> <Molecule Name>
226

> <CDD Number>
CDD-16094

> <Human_sEH_IC50_uM>
19.0

> <Mouse_sEH_IC50_uM>
8.3

$$$$

SketchEl molfile

 20 21  0  0  0  0  0  0  0  0999 V2000
    0.0000    2.8000    0.0000 C   0  0  0  0  0  0  0  0  0  0  0  0
    1.2124    2.1000    0.0000 C   0  0  0  0  0  0  0  0  0  0  0  0
    2.4249    2.8000    0.0000 C   0  0  0  0  0  0  0  0  0  0  0  0
    2.4249    4.2000    0.0000 C   0  0  0  0  0  0  0  0  0  0  0  0
    1.2124    4.9000    0.0000 C   0  0  0  0  0  0  0  0  0  0  0  0
    0.0000    4.2000    0.0000 C   0  0  0  0  0  0  0  0  0  0  0  0
    3.6373    2.1000    0.0000 N   0  0  0  0  0  0  0  0  0  0  0  0
    4.8497    2.8000    0.0000 C   0  0  0  0  0  0  0  0  0  0  0  0
    6.0622    2.1000    0.0000 O   0  0  0  0  0  0  0  0  0  0  0  0
    4.8497    4.2000    0.0000 O   0  0  0  0  0  0  0  0  0  0  0  0
    7.2746    2.8000    0.0000 C   0  0  0  0  0  0  0  0  0  0  0  0
    8.4870    2.1000    0.0000 C   0  0  0  0  0  0  0  0  0  0  0  0
    9.6995    2.8000    0.0000 C   0  0  0  0  0  0  0  0  0  0  0  0
    9.6995    4.2000    0.0000 C   0  0  0  0  0  0  0  0  0  0  0  0
    8.4870    4.9000    0.0000 C   0  0  0  0  0  0  0  0  0  0  0  0
    7.2746    4.2000    0.0000 C   0  0  0  0  0  0  0  0  0  0  0  0
    8.4870    6.3000    0.0000 C   0  0  0  0  0  0  0  0  0  0  0  0
    8.4870    0.7000    0.0000 C   0  0  0  0  0  0  0  0  0  0  0  0
    7.2746    0.0000    0.0000 C   0  0  0  0  0  0  0  0  0  0  0  0
    9.6995    0.0000    0.0000 C   0  0  0  0  0  0  0  0  0  0  0  0
  1  2  1  0  0  0  0
  2  3  1  0  0  0  0
  3  4  1  0  0  0  0
  4  5  1  0  0  0  0
  5  6  1  0  0  0  0
  6  1  1  0  0  0  0
  3  7  1  0  0  0  0
  7  8  1  0  0  0  0
  8  9  1  0  0  0  0
  8 10  2  0  0  0  0
 11 12  1  0  0  0  0
 12 13  1  0  0  0  0
 13 14  1  0  0  0  0
 14 15  1  0  0  0  0
 15 16  1  0  0  0  0
 16 11  1  0  0  0  0
  9 11  1  6  0  0  0
 15 17  1  6  0  0  0
 12 18  1  1  0  0  0
 18 19  1  0  0  0  0
 18 20  1  0  0  0  0
M  END
> <Molecule Name>
225

> <CDD Number>
CDD-16087

> <Human_sEH_IC50_uM>
1.05

> <Mouse_sEH_IC50_uM>
0.84

$$$$

SketchEl molfile

 18 19  0  0  0  0  0  0  0  0999 V2000
    0.0000    2.8000    0.0000 C   0  0  0  0  0  0  0  0  0  0  0  0
    1.2124    2.1000    0.0000 C   0  0  0  0  0  0  0  0  0  0  0  0
    2.4249    2.8000    0.0000 C   0  0  0  0  0  0  0  0  0  0  0  0
    2.4249    4.2000    0.0000 C   0  0  0  0  0  0  0  0  0  0  0  0
    1.2124    4.9000    0.0000 C   0  0  0  0  0  0  0  0  0  0  0  0
    0.0000    4.2000    0.0000 C   0  0  0  0  0  0  0  0  0  0  0  0
    3.6373    2.1000    0.0000 N   0  0  0  0  0  0  0  0  0  0  0  0
    4.8497    2.8000    0.0000 C   0  0  0  0  0  0  0  0  0  0  0  0
    6.0622    2.1000    0.0000 O   0  0  0  0  0  0  0  0  0  0  0  0
    4.8497    4.2000    0.0000 O   0  0  0  0  0  0  0  0  0  0  0  0
    7.2746    2.8000    0.0000 C   0  0  0  0  0  0  0  0  0  0  0  0
    8.4870    2.1000    0.0000 C   0  0  0  0  0  0  0  0  0  0  0  0
    9.6995    2.8000    0.0000 C   0  0  0  0  0  0  0  0  0  0  0  0
    9.6995    4.2000    0.0000 C   0  0  0  0  0  0  0  0  0  0  0  0
    8.4870    4.9000    0.0000 C   0  0  0  0  0  0  0  0  0  0  0  0
    7.2746    4.2000    0.0000 C   0  0  0  0  0  0  0  0  0  0  0  0
    8.4870    0.7000    0.0000 C   0  0  0  0  0  0  0  0  0  0  0  0
    9.6995    0.0000    0.0000 O   0  0  0  0  0  0  0  0  0  0  0  0
  1  2  1  0  0  0  0
  2  3  1  0  0  0  0
  3  4  1  0  0  0  0
  4  5  1  0  0  0  0
  5  6  1  0  0  0  0
  6  1  1  0  0  0  0
  3  7  1  0  0  0  0
  7  8  1  0  0  0  0
  8  9  1  0  0  0  0
  8 10  2  0  0  0  0
  9 11  1  0  0  0  0
 11 12  2  0  0  0  0
 12 13  1  0  0  0  0
 13 14  2  0  0  0  0
 14 15  1  0  0  0  0
 15 16  2  0  0  0  0
 16 11  1  0  0  0  0
 12 17  1  0  0  0  0
 17 18  1  0  0  0  0
M  END
> <Molecule Name>
224

> <CDD Number>
CDD-16086

> <Human_sEH_IC50_uM>
0.32

> <Mouse_sEH_IC50_uM>
0.99

$$$$

SketchEl molfile

 21 22  0  0  0  0  0  0  0  0999 V2000
    0.0000    2.8001    0.0000 C   0  0  0  0  0  0  0  0  0  0  0  0
    1.2124    2.1001    0.0000 C   0  0  0  0  0  0  0  0  0  0  0  0
    2.4249    2.8001    0.0000 C   0  0  0  0  0  0  0  0  0  0  0  0
    2.4249    4.2001    0.0000 C   0  0  0  0  0  0  0  0  0  0  0  0
    1.2124    4.9001    0.0000 C   0  0  0  0  0  0  0  0  0  0  0  0
    0.0000    4.2001    0.0000 C   0  0  0  0  0  0  0  0  0  0  0  0
    3.6373    2.1001    0.0000 N   0  0  0  0  0  0  0  0  0  0  0  0
    4.8497    2.8001    0.0000 C   0  0  0  0  0  0  0  0  0  0  0  0
    6.0622    2.1001    0.0000 O   0  0  0  0  0  0  0  0  0  0  0  0
    4.8497    4.2001    0.0000 O   0  0  0  0  0  0  0  0  0  0  0  0
    7.2746    2.8001    0.0000 C   0  0  0  0  0  0  0  0  0  0  0  0
    8.4870    2.1000    0.0000 C   0  0  0  0  0  0  0  0  0  0  0  0
    7.2746    4.2001    0.0000 C   0  0  0  0  0  0  0  0  0  0  0  0
    8.6269    4.5625    0.0000 F   0  0  0  0  0  0  0  0  0  0  0  0
    6.0622    4.9001    0.0000 F   0  0  0  0  0  0  0  0  0  0  0  0
    7.2746    5.6001    0.0000 F   0  0  0  0  0  0  0  0  0  0  0  0
    8.4870    0.7000    0.0000 C   0  0  0  0  0  0  0  0  0  0  0  0
    9.6994    0.0000    0.0000 C   0  0  0  0  0  0  0  0  0  0  0  0
   10.9118    0.7000    0.0000 C   0  0  0  0  0  0  0  0  0  0  0  0
   10.9118    2.1000    0.0000 C   0  0  0  0  0  0  0  0  0  0  0  0
    9.6994    2.8000    0.0000 C   0  0  0  0  0  0  0  0  0  0  0  0
  1  2  1  0  0  0  0
  2  3  1  0  0  0  0
  3  4  1  0  0  0  0
  4  5  1  0  0  0  0
  5  6  1  0  0  0  0
  6  1  1  0  0  0  0
  3  7  1  0  0  0  0
  7  8  1  0  0  0  0
  8  9  1  0  0  0  0
  8 10  2  0  0  0  0
  9 11  1  0  0  0  0
 11 12  1  0  0  0  0
 11 13  1  0  0  0  0
 13 14  1  0  0  0  0
 13 15  1  0  0  0  0
 13 16  1  0  0  0  0
 12 17  2  0  0  0  0
 17 18  1  0  0  0  0
 18 19  2  0  0  0  0
 19 20  1  0  0  0  0
 20 21  2  0  0  0  0
 21 12  1  0  0  0  0
M  END
> <Molecule Name>
223

> <CDD Number>
CDD-16085

> <Human_sEH_IC50_uM>
24.0

> <Mouse_sEH_IC50_uM>
24.0

$$$$

SketchEl molfile

 12 12  0  0  0  0  0  0  0  0999 V2000
    4.8497    2.1000    0.0000 N   0  0  0  0  0  0  0  0  0  0  0  0
    6.0622    2.8000    0.0000 C   0  0  0  0  0  0  0  0  0  0  0  0
    7.2746    2.1000    0.0000 N   0  0  0  0  0  0  0  0  0  0  0  0
    6.0622    4.2000    0.0000 O   0  0  0  0  0  0  0  0  0  0  0  0
    3.6373    2.8000    0.0000 C   0  0  0  0  0  0  0  0  0  0  0  0
    2.4249    2.1000    0.0000 C   0  0  0  0  0  0  0  0  0  0  0  0
    1.2124    2.8000    0.0000 C   0  0  0  0  0  0  0  0  0  0  0  0
    0.0000    2.1000    0.0000 C   0  0  0  0  0  0  0  0  0  0  0  0
    0.0000    0.7000    0.0000 C   0  0  0  0  0  0  0  0  0  0  0  0
    1.2124    0.0000    0.0000 C   0  0  0  0  0  0  0  0  0  0  0  0
    2.4249    0.7000    0.0000 C   0  0  0  0  0  0  0  0  0  0  0  0
    3.6373    4.2000    0.0000 O   0  0  0  0  0  0  0  0  0  0  0  0
  1  2  1  0  0  0  0
  2  3  1  0  0  0  0
  2  4  2  0  0  0  0
  1  5  1  0  0  0  0
  5  6  1  0  0  0  0
  6  7  2  0  0  0  0
  7  8  1  0  0  0  0
  8  9  2  0  0  0  0
  9 10  1  0  0  0  0
 10 11  2  0  0  0  0
 11  6  1  0  0  0  0
  5 12  2  0  0  0  0
M  END
> <Molecule Name>
222

> <CDD Number>
CDD-16066

> <Human_sEH_IC50_uM>
500.0

> <Mouse_sEH_IC50_uM>
500.0

$$$$

SketchEl molfile

 12 12  0  0  0  0  0  0  0  0999 V2000
    2.4249    0.7728    0.0000 C   0  0  0  0  0  0  0  0  0  0  0  0
    3.6373    0.0728    0.0000 N   0  0  0  0  0  0  0  0  0  0  0  0
    4.8497    0.7728    0.0000 C   0  0  0  0  0  0  0  0  0  0  0  0
    6.0622    0.0728    0.0000 N   0  0  0  0  0  0  0  0  0  0  0  0
    4.8497    2.1728    0.0000 O   0  0  0  0  0  0  0  0  0  0  0  0
    7.0521    0.6734    0.0000 C   0  0  0  0  0  0  0  0  0  0  0  0
    2.4249    2.1728    0.0000 C   0  0  0  0  0  0  0  0  0  0  0  0
    1.2124    2.8728    0.0000 C   0  0  0  0  0  0  0  0  0  0  0  0
    0.0000    2.1728    0.0000 C   0  0  0  0  0  0  0  0  0  0  0  0
    0.0000    0.7728    0.0000 C   0  0  0  0  0  0  0  0  0  0  0  0
    1.2124    0.0728    0.0000 C   0  0  0  0  0  0  0  0  0  0  0  0
    8.2795    0.0000    0.0000 C   0  0  0  0  0  0  0  0  0  0  0  0
  1  2  1  0  0  0  0
  2  3  1  0  0  0  0
  3  4  1  0  0  0  0
  3  5  2  0  0  0  0
  4  6  1  0  0  0  0
  1  7  2  0  0  0  0
  7  8  1  0  0  0  0
  8  9  2  0  0  0  0
  9 10  1  0  0  0  0
 10 11  2  0  0  0  0
 11  1  1  0  0  0  0
  6 12  1  0  0  0  0
M  END
> <Molecule Name>
221

> <CDD Number>
CDD-15998

> <Human_sEH_IC50_uM>
220.0

> <Mouse_sEH_IC50_uM>
224.0

$$$$

SketchEl molfile

 26 27  0  0  0  0  0  0  0  0999 V2000
    1.2124    2.1000    0.0000 C   0  0  0  0  0  0  0  0  0  0  0  0
    2.4249    1.4000    0.0000 C   0  0  0  0  0  0  0  0  0  0  0  0
    3.6373    2.1000    0.0000 C   0  0  0  0  0  0  0  0  0  0  0  0
    3.6373    3.5000    0.0000 C   0  0  0  0  0  0  0  0  0  0  0  0
    2.4249    4.2000    0.0000 C   0  0  0  0  0  0  0  0  0  0  0  0
    1.2124    3.5000    0.0000 C   0  0  0  0  0  0  0  0  0  0  0  0
    4.8497    1.4000    0.0000 N   0  0  0  0  0  0  0  0  0  0  0  0
    6.0622    2.1000    0.0000 C   0  0  0  0  0  0  0  0  0  0  0  0
    7.2746    1.4000    0.0000 N   0  0  0  0  0  0  0  0  0  0  0  0
    6.0622    3.5000    0.0000 O   0  0  0  0  0  0  0  0  0  0  0  0
    8.4870    2.1000    0.0000 C   0  0  0  0  0  0  0  0  0  0  0  0
    9.6995    1.4000    0.0000 C   0  0  0  0  0  0  0  0  0  0  0  0
   10.9119    2.1000    0.0000 C   0  0  0  0  0  0  0  0  0  0  0  0
   10.9119    3.5000    0.0000 C   0  0  0  0  0  0  0  0  0  0  0  0
    9.6995    4.2000    0.0000 C   0  0  0  0  0  0  0  0  0  0  0  0
    8.4870    3.5000    0.0000 C   0  0  0  0  0  0  0  0  0  0  0  0
    9.6995    0.0000    0.0000 F   0  0  0  0  0  0  0  0  0  0  0  0
   12.1244    1.4000    0.0000 F   0  0  0  0  0  0  0  0  0  0  0  0
   12.1244    4.2000    0.0000 F   0  0  0  0  0  0  0  0  0  0  0  0
    9.6995    5.6000    0.0000 F   0  0  0  0  0  0  0  0  0  0  0  0
    7.2746    4.2000    0.0000 F   0  0  0  0  0  0  0  0  0  0  0  0
    2.4249    0.0000    0.0000 F   0  0  0  0  0  0  0  0  0  0  0  0
    0.0000    1.4000    0.0000 F   0  0  0  0  0  0  0  0  0  0  0  0
    0.0000    4.2000    0.0000 F   0  0  0  0  0  0  0  0  0  0  0  0
    2.4249    5.6000    0.0000 F   0  0  0  0  0  0  0  0  0  0  0  0
    4.8497    4.2000    0.0000 F   0  0  0  0  0  0  0  0  0  0  0  0
  1  2  2  0  0  0  0
  2  3  1  0  0  0  0
  3  4  2  0  0  0  0
  4  5  1  0  0  0  0
  5  6  2  0  0  0  0
  6  1  1  0  0  0  0
  3  7  1  0  0  0  0
  7  8  1  0  0  0  0
  8  9  1  0  0  0  0
  8 10  2  0  0  0  0
  9 11  1  0  0  0  0
 11 12  2  0  0  0  0
 12 13  1  0  0  0  0
 13 14  2  0  0  0  0
 14 15  1  0  0  0  0
 15 16  2  0  0  0  0
 16 11  1  0  0  0  0
 12 17  1  0  0  0  0
 13 18  1  0  0  0  0
 14 19  1  0  0  0  0
 15 20  1  0  0  0  0
 16 21  1  0  0  0  0
  2 22  1  0  0  0  0
  1 23  1  0  0  0  0
  6 24  1  0  0  0  0
  5 25  1  0  0  0  0
  4 26  1  0  0  0  0
M  END
> <Molecule Name>
220

> <CDD Number>
CDD-16033

> <Human_sEH_IC50_uM>
25.0

> <Mouse_sEH_IC50_uM>
142.0

$$$$

SketchEl molfile

 13 13  0  0  0  0  0  0  0  0999 V2000
    0.0000    2.1728    0.0000 C   0  0  0  0  0  0  0  0  0  0  0  0
    0.0000    0.7728    0.0000 C   0  0  0  0  0  0  0  0  0  0  0  0
    1.2124    0.0728    0.0000 C   0  0  0  0  0  0  0  0  0  0  0  0
    2.4249    0.7728    0.0000 C   0  0  0  0  0  0  0  0  0  0  0  0
    2.4249    2.1728    0.0000 C   0  0  0  0  0  0  0  0  0  0  0  0
    1.2124    2.8728    0.0000 C   0  0  0  0  0  0  0  0  0  0  0  0
    3.6373    0.0728    0.0000 C   0  0  0  0  0  0  0  0  0  0  0  0
    4.8497    0.7728    0.0000 C   0  0  0  0  0  0  0  0  0  0  0  0
    6.0622    0.0728    0.0000 N   0  0  0  0  0  0  0  0  0  0  0  0
    4.8497    2.1728    0.0000 O   0  0  0  0  0  0  0  0  0  0  0  0
    7.0521    0.6734    0.0000 C   0  0  0  0  0  0  0  0  0  0  0  0
    8.2795    0.0000    0.0000 N   0  0  0  0  0  0  0  0  0  0  0  0
    7.0521    2.0734    0.0000 O   0  0  0  0  0  0  0  0  0  0  0  0
  1  2  2  0  0  0  0
  2  3  1  0  0  0  0
  3  4  2  0  0  0  0
  4  5  1  0  0  0  0
  5  6  2  0  0  0  0
  6  1  1  0  0  0  0
  4  7  1  0  0  0  0
  7  8  1  0  0  0  0
  8  9  1  0  0  0  0
  8 10  2  0  0  0  0
  9 11  1  0  0  0  0
 11 12  1  0  0  0  0
 11 13  2  0  0  0  0
M  END
> <Molecule Name>
219

> <CDD Number>
CDD-537

> <Human_sEH_IC50_uM>
500.0

> <Mouse_sEH_IC50_uM>
500.0

$$$$

SketchEl molfile

 10 10  0  0  0  0  0  0  0  0999 V2000
    0.0000    2.1993    0.0000 C   0  0  0  0  0  0  0  0  0  0  0  0
    0.0000    0.7993    0.0000 C   0  0  0  0  0  0  0  0  0  0  0  0
    1.2124    0.0993    0.0000 C   0  0  0  0  0  0  0  0  0  0  0  0
    2.4249    0.7993    0.0000 C   0  0  0  0  0  0  0  0  0  0  0  0
    2.4249    2.1993    0.0000 C   0  0  0  0  0  0  0  0  0  0  0  0
    1.2124    2.8993    0.0000 C   0  0  0  0  0  0  0  0  0  0  0  0
    3.6373    0.0993    0.0000 N   0  0  0  0  0  0  0  0  0  0  0  0
    4.6273    0.7000    0.0000 C   0  0  0  0  0  0  0  0  0  0  0  0
    5.8397    0.0000    0.0000 N   0  0  0  0  0  0  0  0  0  0  0  0
    4.6273    2.1000    0.0000 O   0  0  0  0  0  0  0  0  0  0  0  0
  1  2  1  0  0  0  0
  2  3  1  0  0  0  0
  3  4  1  0  0  0  0
  4  5  1  0  0  0  0
  5  6  1  0  0  0  0
  6  1  1  0  0  0  0
  4  7  1  0  0  0  0
  7  8  1  0  0  0  0
  8  9  1  0  0  0  0
  8 10  2  0  0  0  0
M  END
> <Molecule Name>
208

> <CDD Number>
CDD-15790

> <Human_sEH_IC50_uM>
500.0

> <Mouse_sEH_IC50_uM>
500.0

$$$$

SketchEl molfile

 34 35  0  0  0  0  0  0  0  0999 V2000
    1.2124    4.2000    0.0000 C   0  0  0  0  0  0  0  0  0  0  0  0
    1.2124    2.8000    0.0000 C   0  0  0  0  0  0  0  0  0  0  0  0
    2.4249    2.1000    0.0000 C   0  0  0  0  0  0  0  0  0  0  0  0
    3.6373    2.8000    0.0000 C   0  0  0  0  0  0  0  0  0  0  0  0
    3.6373    4.2000    0.0000 C   0  0  0  0  0  0  0  0  0  0  0  0
    2.4249    4.9000    0.0000 C   0  0  0  0  0  0  0  0  0  0  0  0
    0.0000    4.9000    0.0000 Cl  0  0  0  0  0  0  0  0  0  0  0  0
    4.8497    2.1000    0.0000 N   0  0  0  0  0  0  0  0  0  0  0  0
    6.0622    2.8000    0.0000 C   0  0  0  0  0  0  0  0  0  0  0  0
    7.2746    2.1000    0.0000 N   0  0  0  0  0  0  0  0  0  0  0  0
    6.0622    4.2000    0.0000 N   0  0  0  0  0  0  0  0  0  0  0  0
    8.4870    2.8000    0.0000 C   0  0  0  0  0  0  0  0  0  0  0  0
    9.6995    2.1000    0.0000 N   0  0  0  0  0  0  0  0  0  0  0  0
    8.4870    4.2000    0.0000 N   0  0  0  0  0  0  0  0  0  0  0  0
   10.9119    2.8000    0.0000 C   0  0  0  0  0  0  0  0  0  0  0  0
   12.1244    2.1000    0.0000 C   0  0  0  0  0  0  0  0  0  0  0  0
   13.3368    2.8000    0.0000 C   0  0  0  0  0  0  0  0  0  0  0  0
   14.5492    2.1000    0.0000 C   0  0  0  0  0  0  0  0  0  0  0  0
   15.7617    2.8000    0.0000 C   0  0  0  0  0  0  0  0  0  0  0  0
   16.9741    2.1000    0.0000 C   0  0  0  0  0  0  0  0  0  0  0  0
   18.1865    2.8000    0.0000 N   0  0  0  0  0  0  0  0  0  0  0  0
   19.3990    2.1000    0.0000 C   0  0  0  0  0  0  0  0  0  0  0  0
   20.6114    2.8000    0.0000 N   0  0  0  0  0  0  0  0  0  0  0  0
   19.3990    0.7000    0.0000 N   0  0  0  0  0  0  0  0  0  0  0  0
   21.8238    2.1000    0.0000 C   0  0  0  0  0  0  0  0  0  0  0  0
   23.0363    2.8000    0.0000 N   0  0  0  0  0  0  0  0  0  0  0  0
   21.8238    0.7000    0.0000 N   0  0  0  0  0  0  0  0  0  0  0  0
   24.2487    2.1000    0.0000 C   0  0  0  0  0  0  0  0  0  0  0  0
   24.2487    0.7000    0.0000 C   0  0  0  0  0  0  0  0  0  0  0  0
   25.4611    0.0000    0.0000 C   0  0  0  0  0  0  0  0  0  0  0  0
   26.6736    0.7000    0.0000 C   0  0  0  0  0  0  0  0  0  0  0  0
   26.6736    2.1000    0.0000 C   0  0  0  0  0  0  0  0  0  0  0  0
   25.4611    2.8000    0.0000 C   0  0  0  0  0  0  0  0  0  0  0  0
   27.8860    0.0000    0.0000 Cl  0  0  0  0  0  0  0  0  0  0  0  0
  1  2  2  0  0  0  0
  2  3  1  0  0  0  0
  3  4  2  0  0  0  0
  4  5  1  0  0  0  0
  5  6  2  0  0  0  0
  6  1  1  0  0  0  0
  1  7  1  0  0  0  0
  4  8  1  0  0  0  0
  8  9  1  0  0  0  0
  9 10  1  0  0  0  0
  9 11  2  0  0  0  0
 10 12  1  0  0  0  0
 12 13  1  0  0  0  0
 12 14  2  0  0  0  0
 13 15  1  0  0  0  0
 15 16  1  0  0  0  0
 16 17  1  0  0  0  0
 17 18  1  0  0  0  0
 18 19  1  0  0  0  0
 19 20  1  0  0  0  0
 20 21  1  0  0  0  0
 21 22  1  0  0  0  0
 22 23  1  0  0  0  0
 22 24  2  0  0  0  0
 23 25  1  0  0  0  0
 25 26  1  0  0  0  0
 25 27  2  0  0  0  0
 26 28  1  0  0  0  0
 28 29  2  0  0  0  0
 29 30  1  0  0  0  0
 30 31  2  0  0  0  0
 31 32  1  0  0  0  0
 32 33  2  0  0  0  0
 33 28  1  0  0  0  0
 31 34  1  0  0  0  0
M  END
> <Molecule Name>
204

> <CDD Number>
CDD-134

> <Human_sEH_IC50_uM>
49.0

> <Mouse_sEH_IC50_uM>
250.0

$$$$

SketchEl molfile

 12 14  0  0  0  0  0  0  0  0999 V2000
    0.7000    0.7000    0.0000 C   0  0  0  0  0  0  0  0  0  0  0  0
    1.9124    0.0000    0.0000 C   0  0  0  0  0  0  0  0  0  0  0  0
    2.9079    0.9845    0.0000 C   0  0  0  0  0  0  0  0  0  0  0  0
    4.2511    1.3502    0.0000 C   0  0  0  0  0  0  0  0  0  0  0  0
    3.0387    2.0503    0.0000 C   0  0  0  0  0  0  0  0  0  0  0  0
    2.0431    1.0659    0.0000 C   0  0  0  0  0  0  0  0  0  0  0  0
    0.0000    1.9124    0.0000 C   0  0  0  0  0  0  0  0  0  0  0  0
    2.3387    3.2627    0.0000 C   0  0  0  0  0  0  0  0  0  0  0  0
    2.2079    2.1969    0.0000 C   0  0  0  0  0  0  0  0  0  0  0  0
    0.9955    2.8969    0.0000 C   0  0  0  0  0  0  0  0  0  0  0  0
    5.6511    1.3502    0.0000 N   0  0  0  0  0  0  0  0  0  0  0  0
    4.2700    0.5474    0.0000 C   0  0  0  0  0  0  0  0  0  0  0  0
  1  2  1  0  0  0  0
  2  3  1  0  0  0  0
  3  4  1  0  0  0  0
  4  5  1  0  0  0  0
  5  6  1  0  0  0  0
  6  1  1  0  0  0  0
  1  7  1  0  0  0  0
  5  8  1  0  0  0  0
  3  9  1  0  0  0  0
  9 10  1  0  0  0  0
  7 10  1  0  0  0  0
  8 10  1  0  0  0  0
  4 11  1  0  0  0  0
 12 11  1  0  0  0  0
M  END
> <Molecule Name>
203

> <CDD Number>
CDD-16176

> <Human_sEH_IC50_uM>
100.0

> <Mouse_sEH_IC50_uM>
100.0

$$$$

SketchEl molfile

  9  9  0  0  0  0  0  0  0  0999 V2000
    1.2124    2.1000    0.0000 C   0  0  0  0  0  0  0  0  0  0  0  0
    1.2124    0.7000    0.0000 C   0  0  0  0  0  0  0  0  0  0  0  0
    2.4249    0.0000    0.0000 C   0  0  0  0  0  0  0  0  0  0  0  0
    3.6373    0.7000    0.0000 C   0  0  0  0  0  0  0  0  0  0  0  0
    3.6373    2.1000    0.0000 C   0  0  0  0  0  0  0  0  0  0  0  0
    2.4249    2.8000    0.0000 C   0  0  0  0  0  0  0  0  0  0  0  0
    4.8497    0.0000    0.0000 C   0  0  0  0  0  0  0  0  0  0  0  0
    6.0622    0.7000    0.0000 N   0  0  0  0  0  0  0  0  0  0  0  0
    0.0000    2.8000    0.0000 Cl  0  0  0  0  0  0  0  0  0  0  0  0
  1  2  2  0  0  0  0
  2  3  1  0  0  0  0
  3  4  2  0  0  0  0
  4  5  1  0  0  0  0
  5  6  2  0  0  0  0
  6  1  1  0  0  0  0
  4  7  1  0  0  0  0
  7  8  1  0  0  0  0
  1  9  1  0  0  0  0
M  END
> <Molecule Name>
202

> <CDD Number>
CDD-4475

> <Human_sEH_IC50_uM>
100.0

> <Mouse_sEH_IC50_uM>
100.0

$$$$

SketchEl molfile

 10 10  0  0  0  0  0  0  0  0999 V2000
    0.0000    2.1000    0.0000 C   0  0  0  0  0  0  0  0  0  0  0  0
    0.0000    0.7000    0.0000 C   0  0  0  0  0  0  0  0  0  0  0  0
    1.2124    0.0000    0.0000 C   0  0  0  0  0  0  0  0  0  0  0  0
    2.4249    0.7000    0.0000 C   0  0  0  0  0  0  0  0  0  0  0  0
    2.4249    2.1000    0.0000 C   0  0  0  0  0  0  0  0  0  0  0  0
    1.2124    2.8000    0.0000 C   0  0  0  0  0  0  0  0  0  0  0  0
    3.6373    2.8000    0.0000 C   0  0  0  0  0  0  0  0  0  0  0  0
    4.8497    2.1000    0.0000 C   0  0  0  0  0  0  0  0  0  0  0  0
    6.0622    2.8000    0.0000 C   0  0  0  0  0  0  0  0  0  0  0  0
    7.2746    2.1000    0.0000 N   0  0  0  0  0  0  0  0  0  0  0  0
  1  2  2  0  0  0  0
  2  3  1  0  0  0  0
  3  4  2  0  0  0  0
  4  5  1  0  0  0  0
  5  6  2  0  0  0  0
  6  1  1  0  0  0  0
  5  7  1  0  0  0  0
  7  8  1  0  0  0  0
  8  9  1  0  0  0  0
  9 10  1  0  0  0  0
M  END
> <Molecule Name>
201

> <CDD Number>
CDD-16175

> <Human_sEH_IC50_uM>
100.0

> <Mouse_sEH_IC50_uM>
100.0

$$$$

SketchEl molfile

 25 27  0  0  0  0  0  0  0  0999 V2000
    1.2124    0.8987    0.0000 C   0  0  0  0  0  0  0  0  0  0  0  0
    2.4249    0.1987    0.0000 C   0  0  0  0  0  0  0  0  0  0  0  0
    3.6373    0.8987    0.0000 C   0  0  0  0  0  0  0  0  0  0  0  0
    3.6373    2.2987    0.0000 C   0  0  0  0  0  0  0  0  0  0  0  0
    2.4249    2.9987    0.0000 C   0  0  0  0  0  0  0  0  0  0  0  0
    1.2124    2.2987    0.0000 C   0  0  0  0  0  0  0  0  0  0  0  0
    4.8497    0.1987    0.0000 N   0  0  0  0  0  0  0  0  0  0  0  0
    5.8397    0.7993    0.0000 C   0  0  0  0  0  0  0  0  0  0  0  0
    7.0521    0.0993    0.0000 N   0  0  0  0  0  0  0  0  0  0  0  0
    5.8397    2.1993    0.0000 O   0  0  0  0  0  0  0  0  0  0  0  0
    8.0421    0.7000    0.0000 C   0  0  0  0  0  0  0  0  0  0  0  0
    0.0000    2.9987    0.0000 Cl  0  0  0  0  0  0  0  0  0  0  0  0
    0.0000    0.1987    0.0000 Cl  0  0  0  0  0  0  0  0  0  0  0  0
    9.2545    0.0000    0.0000 C   0  0  0  0  0  0  0  0  0  0  0  0
   10.4669    0.7000    0.0000 C   0  0  0  0  0  0  0  0  0  0  0  0
   10.4669    2.1000    0.0000 C   0  0  0  0  0  0  0  0  0  0  0  0
    9.2545    2.8000    0.0000 C   0  0  0  0  0  0  0  0  0  0  0  0
    8.0421    2.1000    0.0000 C   0  0  0  0  0  0  0  0  0  0  0  0
   11.6794    2.8000    0.0000 O   0  0  0  0  0  0  0  0  0  0  0  0
   12.8918    2.1000    0.0000 C   0  0  0  0  0  0  0  0  0  0  0  0
   12.8918    0.7000    0.0000 C   0  0  0  0  0  0  0  0  0  0  0  0
   14.1043    0.0000    0.0000 C   0  0  0  0  0  0  0  0  0  0  0  0
   15.3167    0.7000    0.0000 C   0  0  0  0  0  0  0  0  0  0  0  0
   15.3167    2.1000    0.0000 C   0  0  0  0  0  0  0  0  0  0  0  0
   14.1043    2.8000    0.0000 C   0  0  0  0  0  0  0  0  0  0  0  0
  1  2  2  0  0  0  0
  2  3  1  0  0  0  0
  3  4  2  0  0  0  0
  4  5  1  0  0  0  0
  5  6  2  0  0  0  0
  6  1  1  0  0  0  0
  3  7  1  0  0  0  0
  7  8  1  0  0  0  0
  8  9  1  0  0  0  0
  8 10  2  0  0  0  0
  9 11  1  0  0  0  0
  6 12  1  0  0  0  0
  1 13  1  0  0  0  0
 11 14  2  0  0  0  0
 14 15  1  0  0  0  0
 15 16  2  0  0  0  0
 16 17  1  0  0  0  0
 17 18  2  0  0  0  0
 18 11  1  0  0  0  0
 16 19  1  0  0  0  0
 19 20  1  0  0  0  0
 20 21  2  0  0  0  0
 21 22  1  0  0  0  0
 22 23  2  0  0  0  0
 23 24  1  0  0  0  0
 24 25  2  0  0  0  0
 25 20  1  0  0  0  0
M  END
> <Molecule Name>
200

> <CDD Number>
CDD-16050

> <Human_sEH_IC50_uM>
0.2

> <Mouse_sEH_IC50_uM>
2.6

$$$$

SketchEl molfile

 20 21  0  0  0  0  0  0  0  0999 V2000
    1.2124    0.8987    0.0000 C   0  0  0  0  0  0  0  0  0  0  0  0
    2.4249    0.1987    0.0000 C   0  0  0  0  0  0  0  0  0  0  0  0
    3.6373    0.8987    0.0000 C   0  0  0  0  0  0  0  0  0  0  0  0
    3.6373    2.2987    0.0000 C   0  0  0  0  0  0  0  0  0  0  0  0
    2.4249    2.9987    0.0000 C   0  0  0  0  0  0  0  0  0  0  0  0
    1.2124    2.2987    0.0000 C   0  0  0  0  0  0  0  0  0  0  0  0
    4.8497    0.1987    0.0000 N   0  0  0  0  0  0  0  0  0  0  0  0
    5.8397    0.7993    0.0000 C   0  0  0  0  0  0  0  0  0  0  0  0
    7.0521    0.0993    0.0000 N   0  0  0  0  0  0  0  0  0  0  0  0
    5.8397    2.1993    0.0000 O   0  0  0  0  0  0  0  0  0  0  0  0
    8.0421    0.7000    0.0000 C   0  0  0  0  0  0  0  0  0  0  0  0
    0.0000    2.9987    0.0000 Cl  0  0  0  0  0  0  0  0  0  0  0  0
    0.0000    0.1987    0.0000 Cl  0  0  0  0  0  0  0  0  0  0  0  0
    9.2545    0.0000    0.0000 C   0  0  0  0  0  0  0  0  0  0  0  0
   10.4669    0.7000    0.0000 C   0  0  0  0  0  0  0  0  0  0  0  0
   10.4669    2.1000    0.0000 C   0  0  0  0  0  0  0  0  0  0  0  0
    9.2545    2.8000    0.0000 C   0  0  0  0  0  0  0  0  0  0  0  0
    8.0421    2.1000    0.0000 C   0  0  0  0  0  0  0  0  0  0  0  0
   11.6794    2.8000    0.0000 O   0  0  0  0  0  0  0  0  0  0  0  0
   12.8918    2.1000    0.0000 C   0  0  0  0  0  0  0  0  0  0  0  0
  1  2  2  0  0  0  0
  2  3  1  0  0  0  0
  3  4  2  0  0  0  0
  4  5  1  0  0  0  0
  5  6  2  0  0  0  0
  6  1  1  0  0  0  0
  3  7  1  0  0  0  0
  7  8  1  0  0  0  0
  8  9  1  0  0  0  0
  8 10  2  0  0  0  0
  9 11  1  0  0  0  0
  6 12  1  0  0  0  0
  1 13  1  0  0  0  0
 11 14  2  0  0  0  0
 14 15  1  0  0  0  0
 15 16  2  0  0  0  0
 16 17  1  0  0  0  0
 17 18  2  0  0  0  0
 18 11  1  0  0  0  0
 16 19  1  0  0  0  0
 19 20  1  0  0  0  0
M  END
> <Molecule Name>
199

> <CDD Number>
CDD-16049

> <Human_sEH_IC50_uM>
0.6

> <Mouse_sEH_IC50_uM>
18.4

$$$$

SketchEl molfile

 15 15  0  0  0  0  0  0  0  0999 V2000
    6.0622    2.8000    0.0000 C   0  0  0  0  0  0  0  0  0  0  0  0
    7.2746    2.1000    0.0000 N   0  0  0  0  0  0  0  0  0  0  0  0
    8.4870    2.8000    0.0000 C   0  0  0  0  0  0  0  0  0  0  0  0
    9.6995    2.1000    0.0000 N   0  0  0  0  0  0  0  0  0  0  0  0
    8.4870    4.2000    0.0000 O   0  0  0  0  0  0  0  0  0  0  0  0
    4.8497    2.1000    0.0000 C   0  0  0  0  0  0  0  0  0  0  0  0
   10.6894    2.7007    0.0000 C   0  0  0  0  0  0  0  0  0  0  0  0
   11.9168    2.0272    0.0000 C   0  0  0  0  0  0  0  0  0  0  0  0
    3.6373    2.8000    0.0000 C   0  0  0  0  0  0  0  0  0  0  0  0
    2.4249    2.1000    0.0000 C   0  0  0  0  0  0  0  0  0  0  0  0
    1.2124    2.8000    0.0000 C   0  0  0  0  0  0  0  0  0  0  0  0
    0.0000    2.1000    0.0000 C   0  0  0  0  0  0  0  0  0  0  0  0
    0.0000    0.7000    0.0000 C   0  0  0  0  0  0  0  0  0  0  0  0
    1.2124    0.0000    0.0000 C   0  0  0  0  0  0  0  0  0  0  0  0
    2.4249    0.7000    0.0000 C   0  0  0  0  0  0  0  0  0  0  0  0
  1  2  1  0  0  0  0
  2  3  1  0  0  0  0
  3  4  1  0  0  0  0
  3  5  2  0  0  0  0
  1  6  1  0  0  0  0
  4  7  1  0  0  0  0
  7  8  1  0  0  0  0
  6  9  1  0  0  0  0
  9 10  1  0  0  0  0
 10 11  2  0  0  0  0
 11 12  1  0  0  0  0
 12 13  2  0  0  0  0
 13 14  1  0  0  0  0
 14 15  2  0  0  0  0
 15 10  1  0  0  0  0
M  END
> <Molecule Name>
198

> <CDD Number>
CDD-16014

> <Human_sEH_IC50_uM>
30.0

> <Mouse_sEH_IC50_uM>
11.5

$$$$

SketchEl molfile

 16 17  0  0  0  0  0  0  0  0999 V2000
    1.2124    4.2000    0.0000 C   0  0  0  0  0  0  0  0  0  0  0  0
    1.2124    2.8000    0.0000 C   0  0  0  0  0  0  0  0  0  0  0  0
    2.4249    2.1000    0.0000 C   0  0  0  0  0  0  0  0  0  0  0  0
    3.6373    2.8000    0.0000 C   0  0  0  0  0  0  0  0  0  0  0  0
    3.6373    4.2000    0.0000 C   0  0  0  0  0  0  0  0  0  0  0  0
    2.4249    4.9000    0.0000 C   0  0  0  0  0  0  0  0  0  0  0  0
    4.8497    2.1000    0.0000 N   0  0  0  0  0  0  0  0  0  0  0  0
    6.0622    2.8000    0.0000 C   0  0  0  0  0  0  0  0  0  0  0  0
    7.2746    2.1000    0.0000 N   0  0  0  0  0  0  0  0  0  0  0  0
    6.0622    4.2000    0.0000 O   0  0  0  0  0  0  0  0  0  0  0  0
    8.2646    2.7007    0.0000 C   0  0  0  0  0  0  0  0  0  0  0  0
    9.4920    2.0272    0.0000 C   0  0  0  0  0  0  0  0  0  0  0  0
    0.0000    2.1000    0.0000 C   0  0  0  0  0  0  0  0  0  0  0  0
    0.0000    0.7000    0.0000 C   0  0  0  0  0  0  0  0  0  0  0  0
    1.2124    0.0000    0.0000 C   0  0  0  0  0  0  0  0  0  0  0  0
    2.4249    0.7000    0.0000 C   0  0  0  0  0  0  0  0  0  0  0  0
  1  2  2  0  0  0  0
  2  3  1  0  0  0  0
  3  4  2  0  0  0  0
  4  5  1  0  0  0  0
  5  6  2  0  0  0  0
  6  1  1  0  0  0  0
  4  7  1  0  0  0  0
  7  8  1  0  0  0  0
  8  9  1  0  0  0  0
  8 10  2  0  0  0  0
  9 11  1  0  0  0  0
 11 12  1  0  0  0  0
  2 13  1  0  0  0  0
 13 14  2  0  0  0  0
 14 15  1  0  0  0  0
 15 16  2  0  0  0  0
 16  3  1  0  0  0  0
M  END
> <Molecule Name>
197

> <CDD Number>
CDD-16054

> <Human_sEH_IC50_uM>
98.0

> <Mouse_sEH_IC50_uM>
203.0

$$$$

SketchEl molfile

 13 13  0  0  0  0  0  0  0  0999 V2000
    1.2124    0.8987    0.0000 C   0  0  0  0  0  0  0  0  0  0  0  0
    2.4249    0.1987    0.0000 C   0  0  0  0  0  0  0  0  0  0  0  0
    3.6373    0.8987    0.0000 C   0  0  0  0  0  0  0  0  0  0  0  0
    3.6373    2.2987    0.0000 C   0  0  0  0  0  0  0  0  0  0  0  0
    2.4249    2.9987    0.0000 C   0  0  0  0  0  0  0  0  0  0  0  0
    1.2124    2.2987    0.0000 C   0  0  0  0  0  0  0  0  0  0  0  0
    0.0000    2.9987    0.0000 Cl  0  0  0  0  0  0  0  0  0  0  0  0
    4.8497    0.1987    0.0000 N   0  0  0  0  0  0  0  0  0  0  0  0
    5.8397    0.7993    0.0000 C   0  0  0  0  0  0  0  0  0  0  0  0
    7.0521    0.0993    0.0000 N   0  0  0  0  0  0  0  0  0  0  0  0
    5.8397    2.1993    0.0000 O   0  0  0  0  0  0  0  0  0  0  0  0
    8.0421    0.7000    0.0000 C   0  0  0  0  0  0  0  0  0  0  0  0
    9.2545    0.0000    0.0000 C   0  0  0  0  0  0  0  0  0  0  0  0
  1  2  2  0  0  0  0
  2  3  1  0  0  0  0
  3  4  2  0  0  0  0
  4  5  1  0  0  0  0
  5  6  2  0  0  0  0
  6  1  1  0  0  0  0
  6  7  1  0  0  0  0
  3  8  1  0  0  0  0
  8  9  1  0  0  0  0
  9 10  1  0  0  0  0
  9 11  2  0  0  0  0
 10 12  1  0  0  0  0
 12 13  1  0  0  0  0
M  END
> <Molecule Name>
194

> <CDD Number>
CDD-16036

> <Human_sEH_IC50_uM>
20.0

> <Mouse_sEH_IC50_uM>
1.35

$$$$

SketchEl molfile

 18 19  0  0  0  0  0  0  0  0999 V2000
    7.2746    2.8000    0.0000 C   0  0  0  0  0  0  0  0  0  0  0  0
    6.0622    2.1000    0.0000 N   0  0  0  0  0  0  0  0  0  0  0  0
    4.8497    2.8000    0.0000 C   0  0  0  0  0  0  0  0  0  0  0  0
    3.6373    2.1000    0.0000 N   0  0  0  0  0  0  0  0  0  0  0  0
    4.8497    4.2000    0.0000 O   0  0  0  0  0  0  0  0  0  0  0  0
    2.4249    2.8000    0.0000 C   0  0  0  0  0  0  0  0  0  0  0  0
    2.4249    4.2000    0.0000 C   0  0  0  0  0  0  0  0  0  0  0  0
    1.2124    4.9000    0.0000 C   0  0  0  0  0  0  0  0  0  0  0  0
    0.0000    4.2000    0.0000 C   0  0  0  0  0  0  0  0  0  0  0  0
    0.0000    2.8000    0.0000 C   0  0  0  0  0  0  0  0  0  0  0  0
    1.2124    2.1000    0.0000 C   0  0  0  0  0  0  0  0  0  0  0  0
    8.4870    2.1000    0.0000 C   0  0  0  0  0  0  0  0  0  0  0  0
    8.4870    0.7000    0.0000 C   0  0  0  0  0  0  0  0  0  0  0  0
    9.6995    0.0000    0.0000 C   0  0  0  0  0  0  0  0  0  0  0  0
   10.9119    0.7000    0.0000 C   0  0  0  0  0  0  0  0  0  0  0  0
   10.9119    2.1000    0.0000 C   0  0  0  0  0  0  0  0  0  0  0  0
    9.6995    2.8000    0.0000 C   0  0  0  0  0  0  0  0  0  0  0  0
   12.1244    0.0000    0.0000 Cl  0  0  0  0  0  0  0  0  0  0  0  0
  1  2  1  0  0  0  0
  2  3  1  0  0  0  0
  3  4  1  0  0  0  0
  3  5  2  0  0  0  0
  4  6  1  0  0  0  0
  6  7  1  0  0  0  0
  7  8  1  0  0  0  0
  8  9  1  0  0  0  0
  9 10  1  0  0  0  0
 10 11  1  0  0  0  0
 11  6  1  0  0  0  0
  1 12  1  0  0  0  0
 12 13  2  0  0  0  0
 13 14  1  0  0  0  0
 14 15  2  0  0  0  0
 15 16  1  0  0  0  0
 16 17  2  0  0  0  0
 17 12  1  0  0  0  0
 15 18  1  0  0  0  0
M  END
> <Molecule Name>
193

> <CDD Number>
CDD-15881

> <Human_sEH_IC50_uM>
0.19

> <Mouse_sEH_IC50_uM>
0.05

$$$$

SketchEl molfile

 20 23  0  0  0  0  0  0  0  0999 V2000
    0.0000    2.6124    0.0000 C   0  0  0  0  0  0  0  0  0  0  0  0
    0.0000    1.2124    0.0000 C   0  0  0  0  0  0  0  0  0  0  0  0
    1.2124    0.5124    0.0000 C   0  0  0  0  0  0  0  0  0  0  0  0
    2.4249    1.2124    0.0000 C   0  0  0  0  0  0  0  0  0  0  0  0
    2.4249    2.6124    0.0000 C   0  0  0  0  0  0  0  0  0  0  0  0
    1.2124    3.3124    0.0000 C   0  0  0  0  0  0  0  0  0  0  0  0
    3.6373    0.5124    0.0000 N   0  0  0  0  0  0  0  0  0  0  0  0
    4.8497    1.2124    0.0000 C   0  0  0  0  0  0  0  0  0  0  0  0
    6.0622    0.5124    0.0000 N   0  0  0  0  0  0  0  0  0  0  0  0
    4.8497    2.6124    0.0000 O   0  0  0  0  0  0  0  0  0  0  0  0
    7.2746    1.2124    0.0000 C   0  0  0  0  0  0  0  0  0  0  0  0
    7.9746    0.0000    0.0000 C   0  0  0  0  0  0  0  0  0  0  0  0
    9.3289    0.3548    0.0000 C   0  0  0  0  0  0  0  0  0  0  0  0
   10.6750    0.0000    0.0000 C   0  0  0  0  0  0  0  0  0  0  0  0
    9.9751    1.2124    0.0000 C   0  0  0  0  0  0  0  0  0  0  0  0
    8.6207    0.8577    0.0000 C   0  0  0  0  0  0  0  0  0  0  0  0
    7.2746    2.6124    0.0000 C   0  0  0  0  0  0  0  0  0  0  0  0
    9.9751    2.6124    0.0000 C   0  0  0  0  0  0  0  0  0  0  0  0
    9.3289    1.7548    0.0000 C   0  0  0  0  0  0  0  0  0  0  0  0
    8.6289    2.9673    0.0000 C   0  0  0  0  0  0  0  0  0  0  0  0
  1  2  1  0  0  0  0
  2  3  1  0  0  0  0
  3  4  1  0  0  0  0
  4  5  1  0  0  0  0
  5  6  1  0  0  0  0
  6  1  1  0  0  0  0
  4  7  1  0  0  0  0
  7  8  1  0  0  0  0
  8  9  1  0  0  0  0
  8 10  2  0  0  0  0
  9 11  1  0  0  0  0
 11 12  1  0  0  0  0
 12 13  1  0  0  0  0
 13 14  1  0  0  0  0
 14 15  1  0  0  0  0
 15 16  1  0  0  0  0
 16 11  1  0  0  0  0
 11 17  1  0  0  0  0
 15 18  1  0  0  0  0
 13 19  1  0  0  0  0
 19 20  1  0  0  0  0
 18 20  1  0  0  0  0
 17 20  1  0  0  0  0
M  END
> <Molecule Name>
192

> <CDD Number>
CDD-15954

> <Human_sEH_IC50_uM>
0.1

> <Mouse_sEH_IC50_uM>
0.05

$$$$

SketchEl molfile

 19 18  0  0  0  0  0  0  0  0999 V2000
    1.2124    0.1987    0.0000 C   0  0  0  0  0  0  0  0  0  0  0  0
    2.4249    0.8987    0.0000 C   0  0  0  0  0  0  0  0  0  0  0  0
    3.6373    0.1987    0.0000 C   0  0  0  0  0  0  0  0  0  0  0  0
    4.8497    0.8987    0.0000 C   0  0  0  0  0  0  0  0  0  0  0  0
    6.0622    0.1987    0.0000 C   0  0  0  0  0  0  0  0  0  0  0  0
    7.2746    0.8987    0.0000 C   0  0  0  0  0  0  0  0  0  0  0  0
    8.4870    0.1987    0.0000 C   0  0  0  0  0  0  0  0  0  0  0  0
    9.6995    0.8987    0.0000 C   0  0  0  0  0  0  0  0  0  0  0  0
   10.9119    0.1987    0.0000 C   0  0  0  0  0  0  0  0  0  0  0  0
   12.1244    0.8987    0.0000 C   0  0  0  0  0  0  0  0  0  0  0  0
   13.3368    0.1987    0.0000 C   0  0  0  0  0  0  0  0  0  0  0  0
   14.5492    0.8987    0.0000 C   0  0  0  0  0  0  0  0  0  0  0  0
   15.7617    0.1987    0.0000 N   0  0  0  0  0  0  0  0  0  0  0  0
   16.7516    0.7993    0.0000 C   0  0  0  0  0  0  0  0  0  0  0  0
   17.9640    0.0993    0.0000 N   0  0  0  0  0  0  0  0  0  0  0  0
   16.7516    2.1993    0.0000 O   0  0  0  0  0  0  0  0  0  0  0  0
   18.9540    0.7000    0.0000 C   0  0  0  0  0  0  0  0  0  0  0  0
   20.1664    0.0000    0.0000 C   0  0  0  0  0  0  0  0  0  0  0  0
    0.0000    0.8987    0.0000 C   0  0  0  0  0  0  0  0  0  0  0  0
  1  2  1  0  0  0  0
  2  3  1  0  0  0  0
  3  4  1  0  0  0  0
  4  5  1  0  0  0  0
  5  6  1  0  0  0  0
  6  7  1  0  0  0  0
  7  8  1  0  0  0  0
  8  9  1  0  0  0  0
  9 10  1  0  0  0  0
 10 11  1  0  0  0  0
 11 12  1  0  0  0  0
 12 13  1  0  0  0  0
 13 14  1  0  0  0  0
 14 15  1  0  0  0  0
 14 16  2  0  0  0  0
 15 17  1  0  0  0  0
 17 18  1  0  0  0  0
  1 19  1  0  0  0  0
M  END
> <Molecule Name>
191

> <CDD Number>
CDD-15855

> <Human_sEH_IC50_uM>
500.0

> <Mouse_sEH_IC50_uM>
500.0

$$$$

SketchEl molfile

 10  9  0  0  0  0  0  0  0  0999 V2000
    3.6373    0.7000    0.0000 C   0  0  0  0  0  0  0  0  0  0  0  0
    4.8497    0.0000    0.0000 C   0  0  0  0  0  0  0  0  0  0  0  0
    6.0622    0.7000    0.0000 C   0  0  0  0  0  0  0  0  0  0  0  0
    7.2746    0.0000    0.0000 N   0  0  0  0  0  0  0  0  0  0  0  0
    8.4870    0.7000    0.0000 C   0  0  0  0  0  0  0  0  0  0  0  0
    9.6995    0.0000    0.0000 N   0  0  0  0  0  0  0  0  0  0  0  0
    8.4870    2.1000    0.0000 O   0  0  0  0  0  0  0  0  0  0  0  0
    2.4249    0.0000    0.0000 C   0  0  0  0  0  0  0  0  0  0  0  0
    1.2124    0.7000    0.0000 C   0  0  0  0  0  0  0  0  0  0  0  0
    0.0000    0.0000    0.0000 C   0  0  0  0  0  0  0  0  0  0  0  0
  1  2  1  0  0  0  0
  2  3  1  0  0  0  0
  3  4  1  0  0  0  0
  4  5  1  0  0  0  0
  5  6  1  0  0  0  0
  5  7  2  0  0  0  0
  1  8  1  0  0  0  0
  8  9  1  0  0  0  0
  9 10  1  0  0  0  0
M  END
> <Molecule Name>
190

> <CDD Number>
CDD-15806

> <Human_sEH_IC50_uM>
10.7

> <Mouse_sEH_IC50_uM>
7.0

$$$$

SketchEl molfile

 19 19  0  0  0  0  0  0  0  0999 V2000
    1.2124    2.1000    0.0000 C   0  0  0  0  0  0  0  0  0  0  0  0
    1.2124    3.5000    0.0000 N   0  0  0  0  0  0  0  0  0  0  0  0
    2.4249    4.2000    0.0000 C   0  0  0  0  0  0  0  0  0  0  0  0
    3.6373    3.5000    0.0000 N   0  0  0  0  0  0  0  0  0  0  0  0
    2.4249    5.6000    0.0000 O   0  0  0  0  0  0  0  0  0  0  0  0
    0.0000    1.4000    0.0000 C   0  0  0  0  0  0  0  0  0  0  0  0
    7.2025    3.4854    0.0000 C   0  0  0  0  0  0  0  0  0  0  0  0
    9.2110    5.4630    0.0000 C   0  0  0  0  0  0  0  0  0  0  0  0
    7.2333    7.4714    0.0000 C   0  0  0  0  0  0  0  0  0  0  0  0
    5.2249    5.4938    0.0000 C   0  0  0  0  0  0  0  0  0  0  0  0
    9.5781    6.7871    0.0000 C   0  0  0  0  0  0  0  0  0  0  0  0
    8.5645    7.8023    0.0000 C   0  0  0  0  0  0  0  0  0  0  0  0
    5.9237    7.8672    0.0000 C   0  0  0  0  0  0  0  0  0  0  0  0
    4.9053    6.8568    0.0000 C   0  0  0  0  0  0  0  0  0  0  0  0
    4.8497    4.2000    0.0000 C   0  0  0  0  0  0  0  0  0  0  0  0
    5.8641    3.1856    0.0000 C   0  0  0  0  0  0  0  0  0  0  0  0
    8.4997    3.0751    0.0000 C   0  0  0  0  0  0  0  0  0  0  0  0
    9.5168    4.0867    0.0000 C   0  0  0  0  0  0  0  0  0  0  0  0
    0.0000    0.0000    0.0000 C   0  0  0  0  0  0  0  0  0  0  0  0
  1  2  1  0  0  0  0
  2  3  1  0  0  0  0
  3  4  1  0  0  0  0
  3  5  2  0  0  0  0
  4 15  1  0  0  0  0
  1  6  1  0  0  0  0
 11 12  1  0  0  0  0
  9 12  1  0  0  0  0
  8 11  1  0  0  0  0
 13 14  1  0  0  0  0
  9 13  1  0  0  0  0
 10 14  1  0  0  0  0
 15 16  1  0  0  0  0
  7 16  1  0  0  0  0
 10 15  1  0  0  0  0
 17 18  1  0  0  0  0
  8 18  1  0  0  0  0
  7 17  1  0  0  0  0
  6 19  1  0  0  0  0
M  END
> <Molecule Name>
189

> <CDD Number>
CDD-15801

> <Human_sEH_IC50_uM>
1.0

> <Mouse_sEH_IC50_uM>
0.8

$$$$

SketchEl molfile

 17 18  0  0  0  0  0  0  0  0999 V2000
    7.2746    2.8000    0.0000 C   0  0  0  0  0  0  0  0  0  0  0  0
    6.0622    2.1000    0.0000 N   0  0  0  0  0  0  0  0  0  0  0  0
    4.8497    2.8000    0.0000 C   0  0  0  0  0  0  0  0  0  0  0  0
    3.6373    2.1000    0.0000 N   0  0  0  0  0  0  0  0  0  0  0  0
    4.8497    4.2000    0.0000 O   0  0  0  0  0  0  0  0  0  0  0  0
    2.4249    2.8000    0.0000 C   0  0  0  0  0  0  0  0  0  0  0  0
    2.4249    4.2000    0.0000 C   0  0  0  0  0  0  0  0  0  0  0  0
    1.2124    4.9000    0.0000 C   0  0  0  0  0  0  0  0  0  0  0  0
    0.0000    4.2000    0.0000 C   0  0  0  0  0  0  0  0  0  0  0  0
    0.0000    2.8000    0.0000 C   0  0  0  0  0  0  0  0  0  0  0  0
    1.2124    2.1000    0.0000 C   0  0  0  0  0  0  0  0  0  0  0  0
    8.4870    2.1000    0.0000 C   0  0  0  0  0  0  0  0  0  0  0  0
    8.4870    0.7000    0.0000 C   0  0  0  0  0  0  0  0  0  0  0  0
    9.6995    0.0000    0.0000 C   0  0  0  0  0  0  0  0  0  0  0  0
   10.9119    0.7000    0.0000 N   0  0  0  0  0  0  0  0  0  0  0  0
   10.9119    2.1000    0.0000 C   0  0  0  0  0  0  0  0  0  0  0  0
    9.6995    2.8000    0.0000 C   0  0  0  0  0  0  0  0  0  0  0  0
  1  2  1  0  0  0  0
  2  3  1  0  0  0  0
  3  4  1  0  0  0  0
  3  5  2  0  0  0  0
  4  6  1  0  0  0  0
  6  7  1  0  0  0  0
  7  8  1  0  0  0  0
  8  9  1  0  0  0  0
  9 10  1  0  0  0  0
 10 11  1  0  0  0  0
 11  6  1  0  0  0  0
  1 12  1  0  0  0  0
 12 13  2  0  0  0  0
 13 14  1  0  0  0  0
 14 15  2  0  0  0  0
 15 16  1  0  0  0  0
 16 17  2  0  0  0  0
 17 12  1  0  0  0  0
M  END
> <Molecule Name>
188

> <CDD Number>
CDD-15971

> <Human_sEH_IC50_uM>
2.5

> <Mouse_sEH_IC50_uM>
0.73

$$$$

SketchEl molfile

 16 17  0  0  0  0  0  0  0  0999 V2000
    0.0000    2.1000    0.0000 C   0  0  0  0  0  0  0  0  0  0  0  0
    0.0000    0.7000    0.0000 C   0  0  0  0  0  0  0  0  0  0  0  0
    1.2124    0.0000    0.0000 C   0  0  0  0  0  0  0  0  0  0  0  0
    2.4249    0.7000    0.0000 C   0  0  0  0  0  0  0  0  0  0  0  0
    2.4249    2.1000    0.0000 C   0  0  0  0  0  0  0  0  0  0  0  0
    1.2124    2.8000    0.0000 C   0  0  0  0  0  0  0  0  0  0  0  0
    3.6373    0.0000    0.0000 N   0  0  0  0  0  0  0  0  0  0  0  0
    4.8497    0.7000    0.0000 C   0  0  0  0  0  0  0  0  0  0  0  0
    6.0622    0.0000    0.0000 C   0  0  0  0  0  0  0  0  0  0  0  0
    4.8497    2.1000    0.0000 O   0  0  0  0  0  0  0  0  0  0  0  0
    7.2746    0.7000    0.0000 C   0  0  0  0  0  0  0  0  0  0  0  0
    8.4870    0.0000    0.0000 C   0  0  0  0  0  0  0  0  0  0  0  0
    9.6995    0.7000    0.0000 C   0  0  0  0  0  0  0  0  0  0  0  0
    9.6995    2.1000    0.0000 C   0  0  0  0  0  0  0  0  0  0  0  0
    8.4870    2.8000    0.0000 C   0  0  0  0  0  0  0  0  0  0  0  0
    7.2746    2.1000    0.0000 C   0  0  0  0  0  0  0  0  0  0  0  0
  1  2  1  0  0  0  0
  2  3  1  0  0  0  0
  3  4  1  0  0  0  0
  4  5  1  0  0  0  0
  5  6  1  0  0  0  0
  6  1  1  0  0  0  0
  4  7  1  0  0  0  0
  7  8  1  0  0  0  0
  8  9  1  0  0  0  0
  8 10  2  0  0  0  0
  9 11  1  0  0  0  0
 11 12  1  0  0  0  0
 12 13  1  0  0  0  0
 13 14  1  0  0  0  0
 14 15  1  0  0  0  0
 15 16  1  0  0  0  0
 16 11  1  0  0  0  0
M  END
> <Molecule Name>
187

> <CDD Number>
CDD-16152

> <Human_sEH_IC50_uM>
0.42

> <Mouse_sEH_IC50_uM>
0.57

$$$$

SketchEl molfile

 10  9  0  0  0  0  0  0  0  0999 V2000
    2.3422    1.3523    0.0000 P   0  0  0  0  0  0  0  0  0  0  0  0
    3.5547    0.6523    0.0000 N   0  0  0  0  0  0  0  0  0  0  0  0
    3.5547    2.0523    0.0000 O   0  0  0  0  0  0  0  0  0  0  0  0
    1.3523    2.3422    0.0000 O   0  0  0  0  0  0  0  0  0  0  0  0
    0.6523    3.5547    0.0000 C   0  0  0  0  0  0  0  0  0  0  0  0
    1.3523    0.3623    0.0000 S   0  0  0  0  0  0  0  0  0  0  0  0
    0.0000    0.0000    0.0000 C   0  0  0  0  0  0  0  0  0  0  0  0
    4.9070    1.0146    0.0000 C   0  0  0  0  0  0  0  0  0  0  0  0
    5.8969    0.0247    0.0000 C   0  0  0  0  0  0  0  0  0  0  0  0
    5.2693    2.3669    0.0000 O   0  0  0  0  0  0  0  0  0  0  0  0
  1  2  1  0  0  0  0
  1  3  2  0  0  0  0
  1  4  1  0  0  0  0
  4  5  1  0  0  0  0
  1  6  1  0  0  0  0
  6  7  1  0  0  0  0
  2  8  1  0  0  0  0
  8  9  1  0  0  0  0
  8 10  2  0  0  0  0
M  END
> <Molecule Name>
186

> <CDD Number>
CDD-15416

> <Human_sEH_IC50_uM>
500.0

> <Mouse_sEH_IC50_uM>
500.0

$$$$

SketchEl molfile

  7  6  0  0  0  0  0  0  0  0999 V2000
    2.3422    1.3523    0.0000 P   0  0  0  0  0  0  0  0  0  0  0  0
    3.5547    0.6523    0.0000 N   0  0  0  0  0  0  0  0  0  0  0  0
    3.5547    2.0523    0.0000 O   0  0  0  0  0  0  0  0  0  0  0  0
    1.3523    2.3422    0.0000 O   0  0  0  0  0  0  0  0  0  0  0  0
    0.6523    3.5547    0.0000 C   0  0  0  0  0  0  0  0  0  0  0  0
    1.3523    0.3623    0.0000 S   0  0  0  0  0  0  0  0  0  0  0  0
    0.0000    0.0000    0.0000 C   0  0  0  0  0  0  0  0  0  0  0  0
  1  2  1  0  0  0  0
  1  3  2  0  0  0  0
  1  4  1  0  0  0  0
  4  5  1  0  0  0  0
  1  6  1  0  0  0  0
  6  7  1  0  0  0  0
M  END
> <Molecule Name>
185

> <CDD Number>
CDD-15386

> <Human_sEH_IC50_uM>
500.0

> <Mouse_sEH_IC50_uM>
275.0

$$$$

SketchEl molfile

 19 19  0  0  0  0  0  0  0  0999 V2000
    2.4249    2.1728    0.0000 C   0  0  0  0  0  0  0  0  0  0  0  0
    3.6373    1.4728    0.0000 N   0  0  0  0  0  0  0  0  0  0  0  0
    4.8497    2.1728    0.0000 C   0  0  0  0  0  0  0  0  0  0  0  0
    6.0622    1.4728    0.0000 N   0  0  0  0  0  0  0  0  0  0  0  0
    4.8497    3.5728    0.0000 O   0  0  0  0  0  0  0  0  0  0  0  0
    7.0521    2.0734    0.0000 C   0  0  0  0  0  0  0  0  0  0  0  0
    2.4249    3.5728    0.0000 C   0  0  0  0  0  0  0  0  0  0  0  0
    1.2124    4.2728    0.0000 C   0  0  0  0  0  0  0  0  0  0  0  0
    0.0000    3.5728    0.0000 C   0  0  0  0  0  0  0  0  0  0  0  0
    0.0000    2.1728    0.0000 C   0  0  0  0  0  0  0  0  0  0  0  0
    1.2124    1.4728    0.0000 C   0  0  0  0  0  0  0  0  0  0  0  0
    8.2795    1.4000    0.0000 C   0  0  0  0  0  0  0  0  0  0  0  0
    9.4920    2.1000    0.0000 C   0  0  0  0  0  0  0  0  0  0  0  0
   10.7044    1.4000    0.0000 C   0  0  0  0  0  0  0  0  0  0  0  0
   11.9168    2.1000    0.0000 C   0  0  0  0  0  0  0  0  0  0  0  0
   13.1293    1.4000    0.0000 C   0  0  0  0  0  0  0  0  0  0  0  0
   14.3417    2.1000    0.0000 O   0  0  0  0  0  0  0  0  0  0  0  0
   13.1293    0.0000    0.0000 O   0  0  0  0  0  0  0  0  0  0  0  0
   15.5541    1.4000    0.0000 C   0  0  0  0  0  0  0  0  0  0  0  0
  1  2  1  0  0  0  0
  2  3  1  0  0  0  0
  3  4  1  0  0  0  0
  3  5  2  0  0  0  0
  4  6  1  0  0  0  0
  1  7  2  0  0  0  0
  7  8  1  0  0  0  0
  8  9  2  0  0  0  0
  9 10  1  0  0  0  0
 10 11  2  0  0  0  0
 11  1  1  0  0  0  0
  6 12  1  0  0  0  0
 12 13  1  0  0  0  0
 13 14  1  0  0  0  0
 14 15  1  0  0  0  0
 15 16  1  0  0  0  0
 16 17  1  0  0  0  0
 16 18  2  0  0  0  0
 17 19  1  0  0  0  0
M  END
> <Molecule Name>
184

> <CDD Number>
CDD-16001

> <Human_sEH_IC50_uM>
9.6

> <Mouse_sEH_IC50_uM>
1.36

$$$$

SketchEl molfile

 15 14  0  0  0  0  0  0  0  0999 V2000
    6.0622    0.7861    0.0000 C   0  0  0  0  0  0  0  0  0  0  0  0
    7.2746    0.0861    0.0000 C   0  0  0  0  0  0  0  0  0  0  0  0
    8.4870    0.7861    0.0000 C   0  0  0  0  0  0  0  0  0  0  0  0
    9.6995    0.0861    0.0000 N   0  0  0  0  0  0  0  0  0  0  0  0
   10.9119    0.7861    0.0000 C   0  0  0  0  0  0  0  0  0  0  0  0
   12.1244    0.0861    0.0000 N   0  0  0  0  0  0  0  0  0  0  0  0
   10.9119    2.1861    0.0000 O   0  0  0  0  0  0  0  0  0  0  0  0
    4.8497    0.0861    0.0000 C   0  0  0  0  0  0  0  0  0  0  0  0
    3.6373    0.7861    0.0000 C   0  0  0  0  0  0  0  0  0  0  0  0
    2.4249    0.0861    0.0000 C   0  0  0  0  0  0  0  0  0  0  0  0
    1.2124    0.7861    0.0000 C   0  0  0  0  0  0  0  0  0  0  0  0
    0.0000    0.0861    0.0000 C   0  0  0  0  0  0  0  0  0  0  0  0
   13.1143    0.6868    0.0000 C   0  0  0  0  0  0  0  0  0  0  0  0
   13.1143    2.0868    0.0000 C   0  0  0  0  0  0  0  0  0  0  0  0
   14.3343    0.0000    0.0000 C   0  0  0  0  0  0  0  0  0  0  0  0
  1  2  1  0  0  0  0
  2  3  1  0  0  0  0
  3  4  1  0  0  0  0
  4  5  1  0  0  0  0
  5  6  1  0  0  0  0
  5  7  2  0  0  0  0
  1  8  1  0  0  0  0
  8  9  1  0  0  0  0
  9 10  1  0  0  0  0
 10 11  1  0  0  0  0
 11 12  1  0  0  0  0
  6 13  1  0  0  0  0
 13 14  1  0  0  0  0
 13 15  1  0  0  0  0
M  END
> <Molecule Name>
183

> <CDD Number>
CDD-15820

> <Human_sEH_IC50_uM>
5.9

> <Mouse_sEH_IC50_uM>
1.06

$$$$

SketchEl molfile

 15 15  0  0  0  0  0  0  0  0999 V2000
    6.0622    0.7000    0.0000 C   0  0  0  0  0  0  0  0  0  0  0  0
    7.2746    0.0000    0.0000 C   0  0  0  0  0  0  0  0  0  0  0  0
    8.4870    0.7000    0.0000 C   0  0  0  0  0  0  0  0  0  0  0  0
    9.6995    0.0000    0.0000 N   0  0  0  0  0  0  0  0  0  0  0  0
   10.9119    0.7000    0.0000 C   0  0  0  0  0  0  0  0  0  0  0  0
   12.1244    0.0000    0.0000 N   0  0  0  0  0  0  0  0  0  0  0  0
   10.9119    2.1000    0.0000 O   0  0  0  0  0  0  0  0  0  0  0  0
    4.8497    0.0000    0.0000 C   0  0  0  0  0  0  0  0  0  0  0  0
    3.6373    0.7000    0.0000 C   0  0  0  0  0  0  0  0  0  0  0  0
    2.4249    0.0000    0.0000 C   0  0  0  0  0  0  0  0  0  0  0  0
    1.2124    0.7000    0.0000 C   0  0  0  0  0  0  0  0  0  0  0  0
    0.0000    0.0000    0.0000 C   0  0  0  0  0  0  0  0  0  0  0  0
   13.1143    0.6007    0.0000 C   0  0  0  0  0  0  0  0  0  0  0  0
   13.8143    1.8131    0.0000 C   0  0  0  0  0  0  0  0  0  0  0  0
   14.5143    0.6007    0.0000 C   0  0  0  0  0  0  0  0  0  0  0  0
  1  2  1  0  0  0  0
  2  3  1  0  0  0  0
  3  4  1  0  0  0  0
  4  5  1  0  0  0  0
  5  6  1  0  0  0  0
  5  7  2  0  0  0  0
  1  8  1  0  0  0  0
  8  9  1  0  0  0  0
  9 10  1  0  0  0  0
 10 11  1  0  0  0  0
 11 12  1  0  0  0  0
  6 13  1  0  0  0  0
 13 14  1  0  0  0  0
 13 15  1  0  0  0  0
 14 15  1  0  0  0  0
M  END
> <Molecule Name>
182

> <CDD Number>
CDD-15825

> <Human_sEH_IC50_uM>
34.0

> <Mouse_sEH_IC50_uM>
9.51

$$$$

SketchEl molfile

 16 16  0  0  0  0  0  0  0  0999 V2000
    6.0622    0.7000    0.0000 C   0  0  0  0  0  0  0  0  0  0  0  0
    7.2746    0.0000    0.0000 C   0  0  0  0  0  0  0  0  0  0  0  0
    8.4870    0.7000    0.0000 C   0  0  0  0  0  0  0  0  0  0  0  0
    9.6995    0.0000    0.0000 N   0  0  0  0  0  0  0  0  0  0  0  0
   10.9119    0.7000    0.0000 C   0  0  0  0  0  0  0  0  0  0  0  0
   12.1244    0.0000    0.0000 N   0  0  0  0  0  0  0  0  0  0  0  0
   10.9119    2.1000    0.0000 O   0  0  0  0  0  0  0  0  0  0  0  0
    4.8497    0.0000    0.0000 C   0  0  0  0  0  0  0  0  0  0  0  0
    3.6373    0.7000    0.0000 C   0  0  0  0  0  0  0  0  0  0  0  0
    2.4249    0.0000    0.0000 C   0  0  0  0  0  0  0  0  0  0  0  0
    1.2124    0.7000    0.0000 C   0  0  0  0  0  0  0  0  0  0  0  0
    0.0000    0.0000    0.0000 C   0  0  0  0  0  0  0  0  0  0  0  0
   13.1143    0.6007    0.0000 C   0  0  0  0  0  0  0  0  0  0  0  0
   13.4767    1.9530    0.0000 C   0  0  0  0  0  0  0  0  0  0  0  0
   14.5143    0.6007    0.0000 C   0  0  0  0  0  0  0  0  0  0  0  0
   14.8767    1.9530    0.0000 C   0  0  0  0  0  0  0  0  0  0  0  0
  1  2  1  0  0  0  0
  2  3  1  0  0  0  0
  3  4  1  0  0  0  0
  4  5  1  0  0  0  0
  5  6  1  0  0  0  0
  5  7  2  0  0  0  0
  1  8  1  0  0  0  0
  8  9  1  0  0  0  0
  9 10  1  0  0  0  0
 10 11  1  0  0  0  0
 11 12  1  0  0  0  0
  6 13  1  0  0  0  0
 13 14  1  0  0  0  0
 13 15  1  0  0  0  0
 14 16  1  0  0  0  0
 15 16  1  0  0  0  0
M  END
> <Molecule Name>
181

> <CDD Number>
CDD-15824

> <Human_sEH_IC50_uM>
1.71

> <Mouse_sEH_IC50_uM>
0.52

$$$$

SketchEl molfile

 20 21  0  0  0  0  0  0  0  0999 V2000
    8.4870    2.8000    0.0000 C   0  0  0  0  0  0  0  0  0  0  0  0
    7.2746    2.1000    0.0000 N   0  0  0  0  0  0  0  0  0  0  0  0
    6.0622    2.8000    0.0000 C   0  0  0  0  0  0  0  0  0  0  0  0
    4.8497    2.1000    0.0000 N   0  0  0  0  0  0  0  0  0  0  0  0
    6.0622    4.2000    0.0000 O   0  0  0  0  0  0  0  0  0  0  0  0
    3.6373    2.8000    0.0000 C   0  0  0  0  0  0  0  0  0  0  0  0
    2.4249    2.1000    0.0000 C   0  0  0  0  0  0  0  0  0  0  0  0
    1.2124    2.8000    0.0000 C   0  0  0  0  0  0  0  0  0  0  0  0
    0.0000    2.1000    0.0000 C   0  0  0  0  0  0  0  0  0  0  0  0
    0.0000    0.7000    0.0000 C   0  0  0  0  0  0  0  0  0  0  0  0
    1.2124    0.0000    0.0000 C   0  0  0  0  0  0  0  0  0  0  0  0
    2.4249    0.7000    0.0000 C   0  0  0  0  0  0  0  0  0  0  0  0
    9.6995    2.1000    0.0000 C   0  0  0  0  0  0  0  0  0  0  0  0
   10.9119    2.8000    0.0000 C   0  0  0  0  0  0  0  0  0  0  0  0
   10.9119    4.2000    0.0000 C   0  0  0  0  0  0  0  0  0  0  0  0
    9.6995    4.9000    0.0000 C   0  0  0  0  0  0  0  0  0  0  0  0
    8.4870    4.2000    0.0000 C   0  0  0  0  0  0  0  0  0  0  0  0
   12.1244    4.9000    0.0000 C   0  0  0  0  0  0  0  0  0  0  0  0
   12.1244    6.3000    0.0000 C   0  0  0  0  0  0  0  0  0  0  0  0
   13.3368    4.2000    0.0000 C   0  0  0  0  0  0  0  0  0  0  0  0
  1  2  1  0  0  0  0
  2  3  1  0  0  0  0
  3  4  1  0  0  0  0
  3  5  2  0  0  0  0
  4  6  1  0  0  0  0
  6  7  1  0  0  0  0
  7  8  1  0  0  0  0
  8  9  1  0  0  0  0
  9 10  1  0  0  0  0
 10 11  1  0  0  0  0
 11 12  1  0  0  0  0
 12  7  1  0  0  0  0
  1 13  2  0  0  0  0
 13 14  1  0  0  0  0
 14 15  2  0  0  0  0
 15 16  1  0  0  0  0
 16 17  2  0  0  0  0
 17  1  1  0  0  0  0
 15 18  1  0  0  0  0
 18 19  1  0  0  0  0
 18 20  1  0  0  0  0
M  END
> <Molecule Name>
180

> <CDD Number>
CDD-15876

> <Human_sEH_IC50_uM>
0.1

> <Mouse_sEH_IC50_uM>
0.06

$$$$

SketchEl molfile

 18 19  0  0  0  0  0  0  0  0999 V2000
    8.4870    2.8000    0.0000 C   0  0  0  0  0  0  0  0  0  0  0  0
    7.2746    2.1000    0.0000 N   0  0  0  0  0  0  0  0  0  0  0  0
    6.0622    2.8000    0.0000 C   0  0  0  0  0  0  0  0  0  0  0  0
    4.8497    2.1000    0.0000 N   0  0  0  0  0  0  0  0  0  0  0  0
    6.0622    4.2000    0.0000 O   0  0  0  0  0  0  0  0  0  0  0  0
    3.6373    2.8000    0.0000 C   0  0  0  0  0  0  0  0  0  0  0  0
    2.4249    2.1000    0.0000 C   0  0  0  0  0  0  0  0  0  0  0  0
    1.2124    2.8000    0.0000 C   0  0  0  0  0  0  0  0  0  0  0  0
    0.0000    2.1000    0.0000 C   0  0  0  0  0  0  0  0  0  0  0  0
    0.0000    0.7000    0.0000 C   0  0  0  0  0  0  0  0  0  0  0  0
    1.2124    0.0000    0.0000 C   0  0  0  0  0  0  0  0  0  0  0  0
    2.4249    0.7000    0.0000 C   0  0  0  0  0  0  0  0  0  0  0  0
    9.6995    2.1000    0.0000 C   0  0  0  0  0  0  0  0  0  0  0  0
   10.9119    2.8000    0.0000 C   0  0  0  0  0  0  0  0  0  0  0  0
   10.9119    4.2000    0.0000 C   0  0  0  0  0  0  0  0  0  0  0  0
    9.6995    4.9000    0.0000 C   0  0  0  0  0  0  0  0  0  0  0  0
    8.4870    4.2000    0.0000 C   0  0  0  0  0  0  0  0  0  0  0  0
   12.1244    2.1000    0.0000 Cl  0  0  0  0  0  0  0  0  0  0  0  0
  1  2  1  0  0  0  0
  2  3  1  0  0  0  0
  3  4  1  0  0  0  0
  3  5  2  0  0  0  0
  4  6  1  0  0  0  0
  6  7  1  0  0  0  0
  7  8  1  0  0  0  0
  8  9  1  0  0  0  0
  9 10  1  0  0  0  0
 10 11  1  0  0  0  0
 11 12  1  0  0  0  0
 12  7  1  0  0  0  0
  1 13  2  0  0  0  0
 13 14  1  0  0  0  0
 14 15  2  0  0  0  0
 15 16  1  0  0  0  0
 16 17  2  0  0  0  0
 17  1  1  0  0  0  0
 14 18  1  0  0  0  0
M  END
> <Molecule Name>
179

> <CDD Number>
CDD-15884

> <Human_sEH_IC50_uM>
0.1

> <Mouse_sEH_IC50_uM>
0.06

$$$$

SketchEl molfile

 17 17  0  0  0  0  0  0  0  0999 V2000
    3.6373    0.7993    0.0000 C   0  0  0  0  0  0  0  0  0  0  0  0
    4.8497    0.0993    0.0000 C   0  0  0  0  0  0  0  0  0  0  0  0
    6.0622    0.7993    0.0000 C   0  0  0  0  0  0  0  0  0  0  0  0
    7.2746    0.0993    0.0000 N   0  0  0  0  0  0  0  0  0  0  0  0
    8.4870    0.7993    0.0000 C   0  0  0  0  0  0  0  0  0  0  0  0
    9.6995    0.0993    0.0000 N   0  0  0  0  0  0  0  0  0  0  0  0
    8.4870    2.1993    0.0000 O   0  0  0  0  0  0  0  0  0  0  0  0
    2.4249    0.0993    0.0000 C   0  0  0  0  0  0  0  0  0  0  0  0
    1.2124    0.7993    0.0000 C   0  0  0  0  0  0  0  0  0  0  0  0
    0.0000    0.0993    0.0000 C   0  0  0  0  0  0  0  0  0  0  0  0
   10.6894    0.7000    0.0000 C   0  0  0  0  0  0  0  0  0  0  0  0
   11.9019    0.0000    0.0000 C   0  0  0  0  0  0  0  0  0  0  0  0
   13.1143    0.7000    0.0000 C   0  0  0  0  0  0  0  0  0  0  0  0
   13.1143    2.1000    0.0000 C   0  0  0  0  0  0  0  0  0  0  0  0
   11.9019    2.8000    0.0000 C   0  0  0  0  0  0  0  0  0  0  0  0
   10.6894    2.1000    0.0000 C   0  0  0  0  0  0  0  0  0  0  0  0
   14.3267    0.0000    0.0000 Cl  0  0  0  0  0  0  0  0  0  0  0  0
  1  2  1  0  0  0  0
  2  3  1  0  0  0  0
  3  4  1  0  0  0  0
  4  5  1  0  0  0  0
  5  6  1  0  0  0  0
  5  7  2  0  0  0  0
  1  8  1  0  0  0  0
  8  9  1  0  0  0  0
  9 10  1  0  0  0  0
  6 11  1  0  0  0  0
 11 12  2  0  0  0  0
 12 13  1  0  0  0  0
 13 14  2  0  0  0  0
 14 15  1  0  0  0  0
 15 16  2  0  0  0  0
 16 11  1  0  0  0  0
 13 17  1  0  0  0  0
M  END
> <Molecule Name>
178

> <CDD Number>
CDD-15813

> <Human_sEH_IC50_uM>
0.25

> <Mouse_sEH_IC50_uM>
0.31

$$$$

SketchEl molfile

 18 18  0  0  0  0  0  0  0  0999 V2000
    0.0000    2.8111    0.0000 C   0  0  0  0  0  0  0  0  0  0  0  0
    1.2124    2.1111    0.0000 C   0  0  0  0  0  0  0  0  0  0  0  0
    2.4249    2.8111    0.0000 C   0  0  0  0  0  0  0  0  0  0  0  0
    2.4249    4.2111    0.0000 C   0  0  0  0  0  0  0  0  0  0  0  0
    1.2124    4.9111    0.0000 C   0  0  0  0  0  0  0  0  0  0  0  0
    0.0000    4.2111    0.0000 C   0  0  0  0  0  0  0  0  0  0  0  0
    3.6373    2.1111    0.0000 N   0  0  0  0  0  0  0  0  0  0  0  0
    4.6273    2.7118    0.0000 C   0  0  0  0  0  0  0  0  0  0  0  0
    5.8397    2.0118    0.0000 N   0  0  0  0  0  0  0  0  0  0  0  0
    4.6273    4.1118    0.0000 O   0  0  0  0  0  0  0  0  0  0  0  0
    6.8296    2.6124    0.0000 C   0  0  0  0  0  0  0  0  0  0  0  0
    8.0421    1.9124    0.0000 C   0  0  0  0  0  0  0  0  0  0  0  0
    9.2545    2.6124    0.0000 O   0  0  0  0  0  0  0  0  0  0  0  0
    8.7421    0.7000    0.0000 O   0  0  0  0  0  0  0  0  0  0  0  0
    9.9545    0.0000    0.0000 C   0  0  0  0  0  0  0  0  0  0  0  0
   11.3068    0.3623    0.0000 C   0  0  0  0  0  0  0  0  0  0  0  0
   10.6068    2.2501    0.0000 C   0  0  0  0  0  0  0  0  0  0  0  0
   11.3068    1.0377    0.0000 C   0  0  0  0  0  0  0  0  0  0  0  0
  1  2  1  0  0  0  0
  2  3  1  0  0  0  0
  3  4  1  0  0  0  0
  4  5  1  0  0  0  0
  5  6  1  0  0  0  0
  6  1  1  0  0  0  0
  3  7  1  0  0  0  0
  7  8  1  0  0  0  0
  8  9  1  0  0  0  0
  8 10  2  0  0  0  0
  9 11  1  0  0  0  0
 11 12  1  0  0  0  0
 12 13  1  0  0  0  0
 12 14  1  0  0  0  0
 14 15  1  0  0  0  0
 15 16  1  0  0  0  0
 13 17  1  0  0  0  0
 17 18  1  0  0  0  0
M  END
> <Molecule Name>
177

> <CDD Number>
CDD-15910

> <Human_sEH_IC50_uM>
21.6

> <Mouse_sEH_IC50_uM>
3.3

$$$$

SketchEl molfile

 17 18  0  0  0  0  0  0  0  0999 V2000
    8.4870    2.8000    0.0000 C   0  0  0  0  0  0  0  0  0  0  0  0
    7.2746    2.1000    0.0000 N   0  0  0  0  0  0  0  0  0  0  0  0
    6.0622    2.8000    0.0000 C   0  0  0  0  0  0  0  0  0  0  0  0
    4.8497    2.1000    0.0000 N   0  0  0  0  0  0  0  0  0  0  0  0
    6.0622    4.2000    0.0000 O   0  0  0  0  0  0  0  0  0  0  0  0
    3.6373    2.8000    0.0000 C   0  0  0  0  0  0  0  0  0  0  0  0
    2.4249    2.1000    0.0000 C   0  0  0  0  0  0  0  0  0  0  0  0
    1.2124    2.8000    0.0000 C   0  0  0  0  0  0  0  0  0  0  0  0
    0.0000    2.1000    0.0000 C   0  0  0  0  0  0  0  0  0  0  0  0
    0.0000    0.7000    0.0000 C   0  0  0  0  0  0  0  0  0  0  0  0
    1.2124    0.0000    0.0000 C   0  0  0  0  0  0  0  0  0  0  0  0
    2.4249    0.7000    0.0000 C   0  0  0  0  0  0  0  0  0  0  0  0
    9.6995    2.1000    0.0000 C   0  0  0  0  0  0  0  0  0  0  0  0
   10.9119    2.8000    0.0000 C   0  0  0  0  0  0  0  0  0  0  0  0
   10.9119    4.2000    0.0000 C   0  0  0  0  0  0  0  0  0  0  0  0
    9.6995    4.9000    0.0000 C   0  0  0  0  0  0  0  0  0  0  0  0
    8.4870    4.2000    0.0000 C   0  0  0  0  0  0  0  0  0  0  0  0
  1  2  1  0  0  0  0
  2  3  1  0  0  0  0
  3  4  1  0  0  0  0
  3  5  2  0  0  0  0
  4  6  1  0  0  0  0
  6  7  1  0  0  0  0
  7  8  1  0  0  0  0
  8  9  1  0  0  0  0
  9 10  1  0  0  0  0
 10 11  1  0  0  0  0
 11 12  1  0  0  0  0
 12  7  1  0  0  0  0
  1 13  2  0  0  0  0
 13 14  1  0  0  0  0
 14 15  2  0  0  0  0
 15 16  1  0  0  0  0
 16 17  2  0  0  0  0
 17  1  1  0  0  0  0
M  END
> <Molecule Name>
176

> <CDD Number>
CDD-15965

> <Human_sEH_IC50_uM>
0.53

> <Mouse_sEH_IC50_uM>
0.06

$$$$

SketchEl molfile

 18 17  0  0  0  0  0  0  0  0999 V2000
    6.0622    0.7993    0.0000 C   0  0  0  0  0  0  0  0  0  0  0  0
    7.2746    0.0993    0.0000 C   0  0  0  0  0  0  0  0  0  0  0  0
    8.4870    0.7993    0.0000 C   0  0  0  0  0  0  0  0  0  0  0  0
    9.6995    0.0993    0.0000 N   0  0  0  0  0  0  0  0  0  0  0  0
   10.9119    0.7993    0.0000 C   0  0  0  0  0  0  0  0  0  0  0  0
   12.1244    0.0993    0.0000 N   0  0  0  0  0  0  0  0  0  0  0  0
   10.9119    2.1993    0.0000 O   0  0  0  0  0  0  0  0  0  0  0  0
    4.8497    0.0993    0.0000 C   0  0  0  0  0  0  0  0  0  0  0  0
    3.6373    0.7993    0.0000 C   0  0  0  0  0  0  0  0  0  0  0  0
    2.4249    0.0993    0.0000 C   0  0  0  0  0  0  0  0  0  0  0  0
    1.2124    0.7993    0.0000 C   0  0  0  0  0  0  0  0  0  0  0  0
    0.0000    0.0993    0.0000 C   0  0  0  0  0  0  0  0  0  0  0  0
   13.1143    0.7000    0.0000 C   0  0  0  0  0  0  0  0  0  0  0  0
   14.3267    0.0000    0.0000 C   0  0  0  0  0  0  0  0  0  0  0  0
   15.5392    0.7000    0.0000 C   0  0  0  0  0  0  0  0  0  0  0  0
   16.7516    0.0000    0.0000 C   0  0  0  0  0  0  0  0  0  0  0  0
   17.9640    0.7000    0.0000 C   0  0  0  0  0  0  0  0  0  0  0  0
   19.1765    0.0000    0.0000 C   0  0  0  0  0  0  0  0  0  0  0  0
  1  2  1  0  0  0  0
  2  3  1  0  0  0  0
  3  4  1  0  0  0  0
  4  5  1  0  0  0  0
  5  6  1  0  0  0  0
  5  7  2  0  0  0  0
  1  8  1  0  0  0  0
  8  9  1  0  0  0  0
  9 10  1  0  0  0  0
 10 11  1  0  0  0  0
 11 12  1  0  0  0  0
  6 13  1  0  0  0  0
 13 14  1  0  0  0  0
 14 15  1  0  0  0  0
 15 16  1  0  0  0  0
 16 17  1  0  0  0  0
 17 18  1  0  0  0  0
M  END
> <Molecule Name>
175

> <CDD Number>
CDD-15821

> <Human_sEH_IC50_uM>
0.24

$$$$

SketchEl molfile

 19 20  0  0  0  0  0  0  0  0999 V2000
    1.2124    0.8721    0.0000 C   0  0  0  0  0  0  0  0  0  0  0  0
    2.4249    0.1721    0.0000 C   0  0  0  0  0  0  0  0  0  0  0  0
    3.6373    0.8721    0.0000 C   0  0  0  0  0  0  0  0  0  0  0  0
    3.6373    2.2721    0.0000 C   0  0  0  0  0  0  0  0  0  0  0  0
    2.4249    2.9721    0.0000 C   0  0  0  0  0  0  0  0  0  0  0  0
    1.2124    2.2721    0.0000 C   0  0  0  0  0  0  0  0  0  0  0  0
    4.8497    0.1721    0.0000 N   0  0  0  0  0  0  0  0  0  0  0  0
    5.8397    0.7728    0.0000 C   0  0  0  0  0  0  0  0  0  0  0  0
    7.0521    0.0728    0.0000 N   0  0  0  0  0  0  0  0  0  0  0  0
    5.8397    2.1728    0.0000 O   0  0  0  0  0  0  0  0  0  0  0  0
    8.0421    0.6734    0.0000 C   0  0  0  0  0  0  0  0  0  0  0  0
    9.2695    0.0000    0.0000 C   0  0  0  0  0  0  0  0  0  0  0  0
    0.0000    0.1721    0.0000 Cl  0  0  0  0  0  0  0  0  0  0  0  0
   10.4664    0.7262    0.0000 C   0  0  0  0  0  0  0  0  0  0  0  0
   11.6788    0.0262    0.0000 C   0  0  0  0  0  0  0  0  0  0  0  0
   12.8912    0.7262    0.0000 C   0  0  0  0  0  0  0  0  0  0  0  0
   12.8912    2.1262    0.0000 C   0  0  0  0  0  0  0  0  0  0  0  0
   11.6788    2.8262    0.0000 C   0  0  0  0  0  0  0  0  0  0  0  0
   10.4664    2.1262    0.0000 C   0  0  0  0  0  0  0  0  0  0  0  0
  1  2  2  0  0  0  0
  2  3  1  0  0  0  0
  3  4  2  0  0  0  0
  4  5  1  0  0  0  0
  5  6  2  0  0  0  0
  6  1  1  0  0  0  0
  3  7  1  0  0  0  0
  7  8  1  0  0  0  0
  8  9  1  0  0  0  0
  8 10  2  0  0  0  0
  9 11  1  0  0  0  0
 11 12  1  0  0  0  0
  1 13  1  0  0  0  0
 12 14  1  0  0  0  0
 14 15  2  0  0  0  0
 15 16  1  0  0  0  0
 16 17  2  0  0  0  0
 17 18  1  0  0  0  0
 18 19  2  0  0  0  0
 19 14  1  0  0  0  0
M  END
> <Molecule Name>
174

> <CDD Number>
CDD-16043

> <Human_sEH_IC50_uM>
0.69

> <Mouse_sEH_IC50_uM>
1.28

$$$$

SketchEl molfile

 19 19  0  0  0  0  0  0  0  0999 V2000
    1.2124    2.2263    0.0000 C   0  0  0  0  0  0  0  0  0  0  0  0
    2.4249    1.5263    0.0000 C   0  0  0  0  0  0  0  0  0  0  0  0
    3.6373    2.2263    0.0000 C   0  0  0  0  0  0  0  0  0  0  0  0
    3.6373    3.6263    0.0000 C   0  0  0  0  0  0  0  0  0  0  0  0
    2.4249    4.3263    0.0000 C   0  0  0  0  0  0  0  0  0  0  0  0
    1.2124    3.6263    0.0000 C   0  0  0  0  0  0  0  0  0  0  0  0
    4.8497    1.5263    0.0000 N   0  0  0  0  0  0  0  0  0  0  0  0
    5.8397    2.1269    0.0000 C   0  0  0  0  0  0  0  0  0  0  0  0
    7.0521    1.4269    0.0000 N   0  0  0  0  0  0  0  0  0  0  0  0
    5.8397    3.5269    0.0000 O   0  0  0  0  0  0  0  0  0  0  0  0
    8.0421    2.0276    0.0000 C   0  0  0  0  0  0  0  0  0  0  0  0
    9.2545    1.3276    0.0000 C   0  0  0  0  0  0  0  0  0  0  0  0
   10.4669    2.0276    0.0000 O   0  0  0  0  0  0  0  0  0  0  0  0
   10.2445    0.3377    0.0000 O   0  0  0  0  0  0  0  0  0  0  0  0
   11.6794    1.3276    0.0000 C   0  0  0  0  0  0  0  0  0  0  0  0
   12.8918    2.0276    0.0000 C   0  0  0  0  0  0  0  0  0  0  0  0
   11.5968    0.7000    0.0000 C   0  0  0  0  0  0  0  0  0  0  0  0
   12.8092    0.0000    0.0000 C   0  0  0  0  0  0  0  0  0  0  0  0
    0.0000    1.5263    0.0000 Cl  0  0  0  0  0  0  0  0  0  0  0  0
  1  2  2  0  0  0  0
  2  3  1  0  0  0  0
  3  4  2  0  0  0  0
  4  5  1  0  0  0  0
  5  6  2  0  0  0  0
  6  1  1  0  0  0  0
  3  7  1  0  0  0  0
  7  8  1  0  0  0  0
  8  9  1  0  0  0  0
  8 10  2  0  0  0  0
  9 11  1  0  0  0  0
 11 12  1  0  0  0  0
 12 13  1  0  0  0  0
 12 14  1  0  0  0  0
 13 15  1  0  0  0  0
 15 16  1  0  0  0  0
 14 17  1  0  0  0  0
 17 18  1  0  0  0  0
  1 19  1  0  0  0  0
M  END
> <Molecule Name>
173

> <CDD Number>
CDD-16037

> <Human_sEH_IC50_uM>
13.2

> <Mouse_sEH_IC50_uM>
27.0

$$$$

SketchEl molfile

 15 15  0  0  0  0  0  0  0  0999 V2000
    1.2124    0.8987    0.0000 C   0  0  0  0  0  0  0  0  0  0  0  0
    2.4249    0.1987    0.0000 C   0  0  0  0  0  0  0  0  0  0  0  0
    3.6373    0.8987    0.0000 C   0  0  0  0  0  0  0  0  0  0  0  0
    3.6373    2.2987    0.0000 C   0  0  0  0  0  0  0  0  0  0  0  0
    2.4249    2.9987    0.0000 C   0  0  0  0  0  0  0  0  0  0  0  0
    1.2124    2.2987    0.0000 C   0  0  0  0  0  0  0  0  0  0  0  0
    4.8497    0.1987    0.0000 N   0  0  0  0  0  0  0  0  0  0  0  0
    5.8397    0.7993    0.0000 C   0  0  0  0  0  0  0  0  0  0  0  0
    7.0521    0.0993    0.0000 N   0  0  0  0  0  0  0  0  0  0  0  0
    5.8397    2.1993    0.0000 O   0  0  0  0  0  0  0  0  0  0  0  0
    8.0421    0.7000    0.0000 C   0  0  0  0  0  0  0  0  0  0  0  0
    0.0000    0.1987    0.0000 Cl  0  0  0  0  0  0  0  0  0  0  0  0
    9.2545    0.0000    0.0000 C   0  0  0  0  0  0  0  0  0  0  0  0
   10.4669    0.7000    0.0000 O   0  0  0  0  0  0  0  0  0  0  0  0
   11.6794    0.0000    0.0000 C   0  0  0  0  0  0  0  0  0  0  0  0
  1  2  2  0  0  0  0
  2  3  1  0  0  0  0
  3  4  2  0  0  0  0
  4  5  1  0  0  0  0
  5  6  2  0  0  0  0
  6  1  1  0  0  0  0
  3  7  1  0  0  0  0
  7  8  1  0  0  0  0
  8  9  1  0  0  0  0
  8 10  2  0  0  0  0
  9 11  1  0  0  0  0
  1 12  1  0  0  0  0
 11 13  1  0  0  0  0
 13 14  1  0  0  0  0
 14 15  1  0  0  0  0
M  END
> <Molecule Name>
171

> <CDD Number>
CDD-16035

> <Human_sEH_IC50_uM>
3.92

> <Mouse_sEH_IC50_uM>
18.6

$$$$

SketchEl molfile

 19 19  0  0  0  0  0  0  0  0999 V2000
    6.0622    0.7993    0.0000 C   0  0  0  0  0  0  0  0  0  0  0  0
    7.2746    0.0993    0.0000 C   0  0  0  0  0  0  0  0  0  0  0  0
    8.4870    0.7993    0.0000 C   0  0  0  0  0  0  0  0  0  0  0  0
    9.6995    0.0993    0.0000 N   0  0  0  0  0  0  0  0  0  0  0  0
   10.9119    0.7993    0.0000 C   0  0  0  0  0  0  0  0  0  0  0  0
   12.1244    0.0993    0.0000 N   0  0  0  0  0  0  0  0  0  0  0  0
   10.9119    2.1993    0.0000 O   0  0  0  0  0  0  0  0  0  0  0  0
    4.8497    0.0993    0.0000 C   0  0  0  0  0  0  0  0  0  0  0  0
    3.6373    0.7993    0.0000 C   0  0  0  0  0  0  0  0  0  0  0  0
    2.4249    0.0993    0.0000 C   0  0  0  0  0  0  0  0  0  0  0  0
    1.2124    0.7993    0.0000 C   0  0  0  0  0  0  0  0  0  0  0  0
    0.0000    0.0993    0.0000 C   0  0  0  0  0  0  0  0  0  0  0  0
   13.1143    0.7000    0.0000 C   0  0  0  0  0  0  0  0  0  0  0  0
   14.3267    0.0000    0.0000 C   0  0  0  0  0  0  0  0  0  0  0  0
   15.5392    0.7000    0.0000 C   0  0  0  0  0  0  0  0  0  0  0  0
   15.5392    2.1000    0.0000 C   0  0  0  0  0  0  0  0  0  0  0  0
   14.3267    2.8000    0.0000 C   0  0  0  0  0  0  0  0  0  0  0  0
   13.1143    2.1000    0.0000 C   0  0  0  0  0  0  0  0  0  0  0  0
   16.7516    0.0000    0.0000 Cl  0  0  0  0  0  0  0  0  0  0  0  0
  1  2  1  0  0  0  0
  2  3  1  0  0  0  0
  3  4  1  0  0  0  0
  4  5  1  0  0  0  0
  5  6  1  0  0  0  0
  5  7  2  0  0  0  0
  1  8  1  0  0  0  0
  8  9  1  0  0  0  0
  9 10  1  0  0  0  0
 10 11  1  0  0  0  0
 11 12  1  0  0  0  0
  6 13  1  0  0  0  0
 13 14  2  0  0  0  0
 14 15  1  0  0  0  0
 15 16  2  0  0  0  0
 16 17  1  0  0  0  0
 17 18  2  0  0  0  0
 18 13  1  0  0  0  0
 15 19  1  0  0  0  0
M  END
> <Molecule Name>
170

> <CDD Number>
CDD-15828

> <Human_sEH_IC50_uM>
0.18

> <Mouse_sEH_IC50_uM>
0.12

$$$$

SketchEl molfile

 21 23  0  0  0  0  0  0  0  0999 V2000
    8.4870    2.8000    0.0000 C   0  0  0  0  0  0  0  0  0  0  0  0
    7.2746    2.1000    0.0000 N   0  0  0  0  0  0  0  0  0  0  0  0
    6.0622    2.8000    0.0000 C   0  0  0  0  0  0  0  0  0  0  0  0
    4.8497    2.1000    0.0000 N   0  0  0  0  0  0  0  0  0  0  0  0
    6.0622    4.2000    0.0000 O   0  0  0  0  0  0  0  0  0  0  0  0
    3.6373    2.8000    0.0000 C   0  0  0  0  0  0  0  0  0  0  0  0
    9.6995    2.1000    0.0000 C   0  0  0  0  0  0  0  0  0  0  0  0
   10.9119    2.8000    0.0000 C   0  0  0  0  0  0  0  0  0  0  0  0
   10.9119    4.2000    0.0000 C   0  0  0  0  0  0  0  0  0  0  0  0
    9.6995    4.9000    0.0000 C   0  0  0  0  0  0  0  0  0  0  0  0
    8.4870    4.2000    0.0000 C   0  0  0  0  0  0  0  0  0  0  0  0
    2.4249    2.1000    0.0000 C   0  0  0  0  0  0  0  0  0  0  0  0
    1.2124    2.8000    0.0000 C   0  0  0  0  0  0  0  0  0  0  0  0
    0.0000    2.1000    0.0000 C   0  0  0  0  0  0  0  0  0  0  0  0
    0.0000    0.7000    0.0000 C   0  0  0  0  0  0  0  0  0  0  0  0
    1.2124    0.0000    0.0000 C   0  0  0  0  0  0  0  0  0  0  0  0
    2.4249    0.7000    0.0000 C   0  0  0  0  0  0  0  0  0  0  0  0
   12.1244    2.1000    0.0000 C   0  0  0  0  0  0  0  0  0  0  0  0
   13.3368    2.8000    0.0000 C   0  0  0  0  0  0  0  0  0  0  0  0
   13.3368    4.2000    0.0000 C   0  0  0  0  0  0  0  0  0  0  0  0
   12.1244    4.9000    0.0000 C   0  0  0  0  0  0  0  0  0  0  0  0
  1  2  1  0  0  0  0
  2  3  1  0  0  0  0
  3  4  1  0  0  0  0
  3  5  2  0  0  0  0
  4  6  1  0  0  0  0
  1  7  2  0  0  0  0
  7  8  1  0  0  0  0
  8  9  2  0  0  0  0
  9 10  1  0  0  0  0
 10 11  2  0  0  0  0
 11  1  1  0  0  0  0
  6 12  1  0  0  0  0
 12 13  1  0  0  0  0
 13 14  1  0  0  0  0
 14 15  1  0  0  0  0
 15 16  1  0  0  0  0
 16 17  1  0  0  0  0
 17 12  1  0  0  0  0
  8 18  1  0  0  0  0
 18 19  2  0  0  0  0
 19 20  1  0  0  0  0
 20 21  2  0  0  0  0
 21  9  1  0  0  0  0
M  END
> <Molecule Name>
169

> <CDD Number>
CDD-15978

> <Human_sEH_IC50_uM>
0.13

> <Mouse_sEH_IC50_uM>
0.06

$$$$

SketchEl molfile

 18 18  0  0  0  0  0  0  0  0999 V2000
    6.0622    0.7993    0.0000 C   0  0  0  0  0  0  0  0  0  0  0  0
    7.2746    0.0993    0.0000 C   0  0  0  0  0  0  0  0  0  0  0  0
    8.4870    0.7993    0.0000 C   0  0  0  0  0  0  0  0  0  0  0  0
    9.6995    0.0993    0.0000 N   0  0  0  0  0  0  0  0  0  0  0  0
   10.9119    0.7993    0.0000 C   0  0  0  0  0  0  0  0  0  0  0  0
   12.1244    0.0993    0.0000 N   0  0  0  0  0  0  0  0  0  0  0  0
   10.9119    2.1993    0.0000 O   0  0  0  0  0  0  0  0  0  0  0  0
    4.8497    0.0993    0.0000 C   0  0  0  0  0  0  0  0  0  0  0  0
    3.6373    0.7993    0.0000 C   0  0  0  0  0  0  0  0  0  0  0  0
    2.4249    0.0993    0.0000 C   0  0  0  0  0  0  0  0  0  0  0  0
    1.2124    0.7993    0.0000 C   0  0  0  0  0  0  0  0  0  0  0  0
    0.0000    0.0993    0.0000 C   0  0  0  0  0  0  0  0  0  0  0  0
   13.1143    0.7000    0.0000 C   0  0  0  0  0  0  0  0  0  0  0  0
   14.3267    0.0000    0.0000 C   0  0  0  0  0  0  0  0  0  0  0  0
   15.5392    0.7000    0.0000 C   0  0  0  0  0  0  0  0  0  0  0  0
   15.5392    2.1000    0.0000 C   0  0  0  0  0  0  0  0  0  0  0  0
   14.3267    2.8000    0.0000 C   0  0  0  0  0  0  0  0  0  0  0  0
   13.1143    2.1000    0.0000 C   0  0  0  0  0  0  0  0  0  0  0  0
  1  2  1  0  0  0  0
  2  3  1  0  0  0  0
  3  4  1  0  0  0  0
  4  5  1  0  0  0  0
  5  6  1  0  0  0  0
  5  7  2  0  0  0  0
  1  8  1  0  0  0  0
  8  9  1  0  0  0  0
  9 10  1  0  0  0  0
 10 11  1  0  0  0  0
 11 12  1  0  0  0  0
  6 13  1  0  0  0  0
 13 14  1  0  0  0  0
 14 15  1  0  0  0  0
 15 16  1  0  0  0  0
 16 17  1  0  0  0  0
 17 18  1  0  0  0  0
 18 13  1  0  0  0  0
M  END
> <Molecule Name>
168

> <CDD Number>
CDD-15826

> <Human_sEH_IC50_uM>
0.12

> <Mouse_sEH_IC50_uM>
0.06

$$$$

SketchEl molfile

 21 21  0  0  0  0  0  0  0  0999 V2000
    1.2124    2.8786    0.0000 C   0  0  0  0  0  0  0  0  0  0  0  0
    2.4249    2.1786    0.0000 C   0  0  0  0  0  0  0  0  0  0  0  0
    3.6373    2.8786    0.0000 C   0  0  0  0  0  0  0  0  0  0  0  0
    3.6373    4.2786    0.0000 C   0  0  0  0  0  0  0  0  0  0  0  0
    2.4249    4.9786    0.0000 C   0  0  0  0  0  0  0  0  0  0  0  0
    1.2124    4.2786    0.0000 C   0  0  0  0  0  0  0  0  0  0  0  0
    4.8497    2.1786    0.0000 N   0  0  0  0  0  0  0  0  0  0  0  0
    5.8397    2.7792    0.0000 C   0  0  0  0  0  0  0  0  0  0  0  0
    7.0521    2.0792    0.0000 N   0  0  0  0  0  0  0  0  0  0  0  0
    5.8397    4.1792    0.0000 O   0  0  0  0  0  0  0  0  0  0  0  0
    8.0421    2.6799    0.0000 C   0  0  0  0  0  0  0  0  0  0  0  0
    9.2545    1.9799    0.0000 C   0  0  0  0  0  0  0  0  0  0  0  0
   10.4669    2.6799    0.0000 C   0  0  0  0  0  0  0  0  0  0  0  0
   11.6794    1.9799    0.0000 C   0  0  0  0  0  0  0  0  0  0  0  0
   12.6693    2.9698    0.0000 O   0  0  0  0  0  0  0  0  0  0  0  0
   12.0417    0.6276    0.0000 O   0  0  0  0  0  0  0  0  0  0  0  0
   13.3940    0.9899    0.0000 C   0  0  0  0  0  0  0  0  0  0  0  0
   14.3840    0.0000    0.0000 C   0  0  0  0  0  0  0  0  0  0  0  0
   13.6593    1.9799    0.0000 C   0  0  0  0  0  0  0  0  0  0  0  0
   14.8717    2.6799    0.0000 C   0  0  0  0  0  0  0  0  0  0  0  0
    0.0000    2.1786    0.0000 Cl  0  0  0  0  0  0  0  0  0  0  0  0
  1  2  2  0  0  0  0
  2  3  1  0  0  0  0
  3  4  2  0  0  0  0
  4  5  1  0  0  0  0
  5  6  2  0  0  0  0
  6  1  1  0  0  0  0
  3  7  1  0  0  0  0
  7  8  1  0  0  0  0
  8  9  1  0  0  0  0
  8 10  2  0  0  0  0
  9 11  1  0  0  0  0
 11 12  1  0  0  0  0
 12 13  1  0  0  0  0
 13 14  1  0  0  0  0
 14 15  1  0  0  0  0
 14 16  1  0  0  0  0
 16 17  1  0  0  0  0
 17 18  1  0  0  0  0
 15 19  1  0  0  0  0
 19 20  1  0  0  0  0
  1 21  1  0  0  0  0
M  END
> <Molecule Name>
167

> <CDD Number>
CDD-16038

> <Human_sEH_IC50_uM>
3.77

> <Mouse_sEH_IC50_uM>
0.39

$$$$

SketchEl molfile

 20 21  0  0  0  0  0  0  0  0999 V2000
    2.4249    2.8993    0.0000 C   0  0  0  0  0  0  0  0  0  0  0  0
    3.6373    2.1993    0.0000 N   0  0  0  0  0  0  0  0  0  0  0  0
    4.8497    2.8993    0.0000 C   0  0  0  0  0  0  0  0  0  0  0  0
    6.0622    2.1993    0.0000 N   0  0  0  0  0  0  0  0  0  0  0  0
    4.8497    4.2993    0.0000 O   0  0  0  0  0  0  0  0  0  0  0  0
    7.0521    2.8000    0.0000 O   0  0  0  0  0  0  0  0  0  0  0  0
    2.4249    4.2993    0.0000 C   0  0  0  0  0  0  0  0  0  0  0  0
    1.2124    4.9993    0.0000 C   0  0  0  0  0  0  0  0  0  0  0  0
    0.0000    4.2993    0.0000 C   0  0  0  0  0  0  0  0  0  0  0  0
    0.0000    2.8993    0.0000 C   0  0  0  0  0  0  0  0  0  0  0  0
    1.2124    2.1993    0.0000 C   0  0  0  0  0  0  0  0  0  0  0  0
    8.2646    2.1000    0.0000 C   0  0  0  0  0  0  0  0  0  0  0  0
    9.4770    2.8000    0.0000 C   0  0  0  0  0  0  0  0  0  0  0  0
   10.6894    2.1000    0.0000 C   0  0  0  0  0  0  0  0  0  0  0  0
    8.2646    0.7000    0.0000 O   0  0  0  0  0  0  0  0  0  0  0  0
   10.6894    0.7000    0.0000 C   0  0  0  0  0  0  0  0  0  0  0  0
   11.9019    0.0000    0.0000 C   0  0  0  0  0  0  0  0  0  0  0  0
   13.1143    0.7000    0.0000 C   0  0  0  0  0  0  0  0  0  0  0  0
   13.1143    2.1000    0.0000 C   0  0  0  0  0  0  0  0  0  0  0  0
   11.9019    2.8000    0.0000 C   0  0  0  0  0  0  0  0  0  0  0  0
  1  2  1  0  0  0  0
  2  3  1  0  0  0  0
  3  4  1  0  0  0  0
  3  5  2  0  0  0  0
  4  6  1  0  0  0  0
  1  7  2  0  0  0  0
  7  8  1  0  0  0  0
  8  9  2  0  0  0  0
  9 10  1  0  0  0  0
 10 11  2  0  0  0  0
 11  1  1  0  0  0  0
  6 12  1  0  0  0  0
 12 13  1  0  0  0  0
 13 14  1  0  0  0  0
 12 15  2  0  0  0  0
 14 16  2  0  0  0  0
 16 17  1  0  0  0  0
 17 18  2  0  0  0  0
 18 19  1  0  0  0  0
 19 20  2  0  0  0  0
 20 14  1  0  0  0  0
M  END
> <Molecule Name>
166

> <CDD Number>
CDD-16011

> <Human_sEH_IC50_uM>
3.8

> <Mouse_sEH_IC50_uM>
2.34

$$$$

SketchEl molfile

 14 14  0  0  0  0  0  0  0  0999 V2000
    2.4249    0.7728    0.0000 C   0  0  0  0  0  0  0  0  0  0  0  0
    3.6373    0.0728    0.0000 N   0  0  0  0  0  0  0  0  0  0  0  0
    4.8497    0.7728    0.0000 C   0  0  0  0  0  0  0  0  0  0  0  0
    6.0622    0.0728    0.0000 N   0  0  0  0  0  0  0  0  0  0  0  0
    4.8497    2.1728    0.0000 O   0  0  0  0  0  0  0  0  0  0  0  0
    7.0521    0.6734    0.0000 C   0  0  0  0  0  0  0  0  0  0  0  0
    2.4249    2.1728    0.0000 C   0  0  0  0  0  0  0  0  0  0  0  0
    1.2124    2.8728    0.0000 C   0  0  0  0  0  0  0  0  0  0  0  0
    0.0000    2.1728    0.0000 C   0  0  0  0  0  0  0  0  0  0  0  0
    0.0000    0.7728    0.0000 C   0  0  0  0  0  0  0  0  0  0  0  0
    1.2124    0.0728    0.0000 C   0  0  0  0  0  0  0  0  0  0  0  0
    8.2795    0.0000    0.0000 C   0  0  0  0  0  0  0  0  0  0  0  0
    9.4764    0.7262    0.0000 O   0  0  0  0  0  0  0  0  0  0  0  0
   10.6889    0.0262    0.0000 C   0  0  0  0  0  0  0  0  0  0  0  0
  1  2  1  0  0  0  0
  2  3  1  0  0  0  0
  3  4  1  0  0  0  0
  3  5  2  0  0  0  0
  4  6  1  0  0  0  0
  1  7  2  0  0  0  0
  7  8  1  0  0  0  0
  8  9  2  0  0  0  0
  9 10  1  0  0  0  0
 10 11  2  0  0  0  0
 11  1  1  0  0  0  0
  6 12  1  0  0  0  0
 12 13  1  0  0  0  0
 13 14  1  0  0  0  0
M  END
> <Molecule Name>
165

> <CDD Number>
CDD-16010

> <Human_sEH_IC50_uM>
199.0

> <Mouse_sEH_IC50_uM>
205.0

$$$$

SketchEl molfile

 16 15  0  0  0  0  0  0  0  0999 V2000
    1.2124    0.7000    0.0000 C   0  0  0  0  0  0  0  0  0  0  0  0
    1.2124    2.1000    0.0000 N   0  0  0  0  0  0  0  0  0  0  0  0
    2.4249    2.8000    0.0000 C   0  0  0  0  0  0  0  0  0  0  0  0
    3.6373    2.1000    0.0000 N   0  0  0  0  0  0  0  0  0  0  0  0
    2.4249    4.2000    0.0000 O   0  0  0  0  0  0  0  0  0  0  0  0
    8.4870    2.1000    0.0000 C   0  0  0  0  0  0  0  0  0  0  0  0
    9.6995    2.8000    0.0000 O   0  0  0  0  0  0  0  0  0  0  0  0
    8.4870    0.7000    0.0000 O   0  0  0  0  0  0  0  0  0  0  0  0
   10.9119    2.1000    0.0000 C   0  0  0  0  0  0  0  0  0  0  0  0
   12.1244    2.8000    0.0000 C   0  0  0  0  0  0  0  0  0  0  0  0
    9.6995    0.0000    0.0000 C   0  0  0  0  0  0  0  0  0  0  0  0
   10.9119    0.7000    0.0000 C   0  0  0  0  0  0  0  0  0  0  0  0
    0.0000    0.0000    0.0000 C   0  0  0  0  0  0  0  0  0  0  0  0
    4.8497    2.8000    0.0000 C   0  0  0  0  0  0  0  0  0  0  0  0
    6.0622    2.1000    0.0000 C   0  0  0  0  0  0  0  0  0  0  0  0
    7.2746    2.8000    0.0000 C   0  0  0  0  0  0  0  0  0  0  0  0
  1  2  1  0  0  0  0
  2  3  1  0  0  0  0
  3  4  1  0  0  0  0
  3  5  2  0  0  0  0
  6  7  1  0  0  0  0
  6  8  1  0  0  0  0
  7  9  1  0  0  0  0
  9 10  1  0  0  0  0
  8 11  1  0  0  0  0
 11 12  1  0  0  0  0
  1 13  1  0  0  0  0
  4 14  1  0  0  0  0
 14 15  1  0  0  0  0
 15 16  1  0  0  0  0
 16  6  1  0  0  0  0
M  END
> <Molecule Name>
164

> <CDD Number>
CDD-15799

> <Human_sEH_IC50_uM>
500.0

> <Mouse_sEH_IC50_uM>
500.0

$$$$

SketchEl molfile

 12 12  0  0  0  0  0  0  0  0999 V2000
    0.0000    0.7000    0.0000 C   0  0  0  0  0  0  0  0  0  0  0  0
    1.2124    0.0000    0.0000 C   0  0  0  0  0  0  0  0  0  0  0  0
    2.4249    0.7000    0.0000 C   0  0  0  0  0  0  0  0  0  0  0  0
    2.4249    2.1000    0.0000 C   0  0  0  0  0  0  0  0  0  0  0  0
    1.2124    2.8000    0.0000 C   0  0  0  0  0  0  0  0  0  0  0  0
    0.0000    2.1000    0.0000 C   0  0  0  0  0  0  0  0  0  0  0  0
    3.6373    2.8000    0.0000 C   0  0  0  0  0  0  0  0  0  0  0  0
    4.8497    2.1000    0.0000 N   0  0  0  0  0  0  0  0  0  0  0  0
    5.8397    2.7007    0.0000 C   0  0  0  0  0  0  0  0  0  0  0  0
    7.0521    2.0007    0.0000 N   0  0  0  0  0  0  0  0  0  0  0  0
    8.0421    2.6013    0.0000 C   0  0  0  0  0  0  0  0  0  0  0  0
    5.8397    4.1007    0.0000 O   0  0  0  0  0  0  0  0  0  0  0  0
  1  2  1  0  0  0  0
  2  3  1  0  0  0  0
  3  4  1  0  0  0  0
  4  5  1  0  0  0  0
  5  6  1  0  0  0  0
  6  1  1  0  0  0  0
  4  7  1  0  0  0  0
  7  8  1  0  0  0  0
  8  9  1  0  0  0  0
  9 10  1  0  0  0  0
 10 11  1  0  0  0  0
  9 12  2  0  0  0  0
M  END
> <Molecule Name>
163

> <CDD Number>
CDD-15868

> <Human_sEH_IC50_uM>
27.3

> <Mouse_sEH_IC50_uM>
19.6

$$$$

SketchEl molfile

 16 17  0  0  0  0  0  0  0  0999 V2000
    0.0000    2.1000    0.0000 C   0  0  0  0  0  0  0  0  0  0  0  0
    0.0000    0.7000    0.0000 C   0  0  0  0  0  0  0  0  0  0  0  0
    1.2124    0.0000    0.0000 C   0  0  0  0  0  0  0  0  0  0  0  0
    2.4249    0.7000    0.0000 C   0  0  0  0  0  0  0  0  0  0  0  0
    2.4249    2.1000    0.0000 C   0  0  0  0  0  0  0  0  0  0  0  0
    1.2124    2.8000    0.0000 C   0  0  0  0  0  0  0  0  0  0  0  0
    3.6373    0.0000    0.0000 C   0  0  0  0  0  0  0  0  0  0  0  0
    4.8497    0.7000    0.0000 S   0  0  0  0  0  0  0  0  0  0  0  0
    6.0622    0.0000    0.0000 C   0  0  0  0  0  0  0  0  0  0  0  0
    7.2746    0.7000    0.0000 C   0  0  0  0  0  0  0  0  0  0  0  0
    4.8497    2.1000    0.0000 O   0  0  0  0  0  0  0  0  0  0  0  0
    8.4870    0.0000    0.0000 C   0  0  0  0  0  0  0  0  0  0  0  0
    9.6995    0.7000    0.0000 C   0  0  0  0  0  0  0  0  0  0  0  0
    9.6995    2.1000    0.0000 C   0  0  0  0  0  0  0  0  0  0  0  0
    8.4870    2.8000    0.0000 C   0  0  0  0  0  0  0  0  0  0  0  0
    7.2746    2.1000    0.0000 C   0  0  0  0  0  0  0  0  0  0  0  0
  1  2  2  0  0  0  0
  2  3  1  0  0  0  0
  3  4  2  0  0  0  0
  4  5  1  0  0  0  0
  5  6  2  0  0  0  0
  6  1  1  0  0  0  0
  4  7  1  0  0  0  0
  7  8  1  0  0  0  0
  8  9  1  0  0  0  0
  9 10  1  0  0  0  0
  8 11  2  0  0  0  0
 10 12  2  0  0  0  0
 12 13  1  0  0  0  0
 13 14  2  0  0  0  0
 14 15  1  0  0  0  0
 15 16  2  0  0  0  0
 16 10  1  0  0  0  0
M  END
> <Molecule Name>
161

> <CDD Number>
CDD-15640

> <Human_sEH_IC50_uM>
289.0

> <Mouse_sEH_IC50_uM>
156.0

$$$$

SketchEl molfile

 14 13  0  0  0  0  0  0  0  0999 V2000
    6.0622    0.7993    0.0000 C   0  0  0  0  0  0  0  0  0  0  0  0
    7.2746    0.0993    0.0000 C   0  0  0  0  0  0  0  0  0  0  0  0
    8.4870    0.7993    0.0000 C   0  0  0  0  0  0  0  0  0  0  0  0
    9.6995    0.0993    0.0000 N   0  0  0  0  0  0  0  0  0  0  0  0
   10.9119    0.7993    0.0000 C   0  0  0  0  0  0  0  0  0  0  0  0
   12.1244    0.0993    0.0000 N   0  0  0  0  0  0  0  0  0  0  0  0
   10.9119    2.1993    0.0000 O   0  0  0  0  0  0  0  0  0  0  0  0
    4.8497    0.0993    0.0000 C   0  0  0  0  0  0  0  0  0  0  0  0
    3.6373    0.7993    0.0000 C   0  0  0  0  0  0  0  0  0  0  0  0
    2.4249    0.0993    0.0000 C   0  0  0  0  0  0  0  0  0  0  0  0
    1.2124    0.7993    0.0000 C   0  0  0  0  0  0  0  0  0  0  0  0
    0.0000    0.0993    0.0000 C   0  0  0  0  0  0  0  0  0  0  0  0
   13.1143    0.7000    0.0000 C   0  0  0  0  0  0  0  0  0  0  0  0
   14.3267    0.0000    0.0000 C   0  0  0  0  0  0  0  0  0  0  0  0
  1  2  1  0  0  0  0
  2  3  1  0  0  0  0
  3  4  1  0  0  0  0
  4  5  1  0  0  0  0
  5  6  1  0  0  0  0
  5  7  2  0  0  0  0
  1  8  1  0  0  0  0
  8  9  1  0  0  0  0
  9 10  1  0  0  0  0
 10 11  1  0  0  0  0
 11 12  1  0  0  0  0
  6 13  1  0  0  0  0
 13 14  1  0  0  0  0
M  END
> <Molecule Name>
160

> <CDD Number>
CDD-15816

> <Human_sEH_IC50_uM>
33.1

> <Mouse_sEH_IC50_uM>
12.8

$$$$

SketchEl molfile

 21 21  0  0  0  0  0  0  0  0999 V2000
    2.5647    2.4734    0.0000 C   0  0  0  0  0  0  0  0  0  0  0  0
    3.7772    1.7734    0.0000 C   0  0  0  0  0  0  0  0  0  0  0  0
    4.9896    2.4734    0.0000 C   0  0  0  0  0  0  0  0  0  0  0  0
    4.9896    3.8734    0.0000 C   0  0  0  0  0  0  0  0  0  0  0  0
    3.7772    4.5734    0.0000 C   0  0  0  0  0  0  0  0  0  0  0  0
    2.5647    3.8734    0.0000 C   0  0  0  0  0  0  0  0  0  0  0  0
    1.3523    4.5734    0.0000 C   0  0  0  0  0  0  0  0  0  0  0  0
    0.9899    5.9257    0.0000 C   0  0  0  0  0  0  0  0  0  0  0  0
    0.0000    4.2111    0.0000 C   0  0  0  0  0  0  0  0  0  0  0  0
    6.2020    1.7734    0.0000 N   0  0  0  0  0  0  0  0  0  0  0  0
    7.1920    2.3741    0.0000 C   0  0  0  0  0  0  0  0  0  0  0  0
    8.4044    1.6741    0.0000 N   0  0  0  0  0  0  0  0  0  0  0  0
    7.1920    3.7741    0.0000 O   0  0  0  0  0  0  0  0  0  0  0  0
    9.3944    2.2748    0.0000 C   0  0  0  0  0  0  0  0  0  0  0  0
   10.6068    1.5748    0.0000 C   0  0  0  0  0  0  0  0  0  0  0  0
   11.8192    2.2748    0.0000 O   0  0  0  0  0  0  0  0  0  0  0  0
   11.3068    0.3623    0.0000 O   0  0  0  0  0  0  0  0  0  0  0  0
   13.1715    1.9124    0.0000 C   0  0  0  0  0  0  0  0  0  0  0  0
   12.6591    0.0000    0.0000 C   0  0  0  0  0  0  0  0  0  0  0  0
   14.1615    0.9225    0.0000 C   0  0  0  0  0  0  0  0  0  0  0  0
   14.0591    0.0000    0.0000 C   0  0  0  0  0  0  0  0  0  0  0  0
  1  2  2  0  0  0  0
  2  3  1  0  0  0  0
  3  4  2  0  0  0  0
  4  5  1  0  0  0  0
  5  6  2  0  0  0  0
  6  1  1  0  0  0  0
  6  7  1  0  0  0  0
  7  8  1  0  0  0  0
  7  9  1  0  0  0  0
  3 10  1  0  0  0  0
 10 11  1  0  0  0  0
 11 12  1  0  0  0  0
 11 13  2  0  0  0  0
 12 14  1  0  0  0  0
 14 15  1  0  0  0  0
 15 16  1  0  0  0  0
 15 17  1  0  0  0  0
 16 18  1  0  0  0  0
 17 19  1  0  0  0  0
 18 20  1  0  0  0  0
 19 21  1  0  0  0  0
M  END
> <Molecule Name>
159

> <CDD Number>
CDD-16029

> <Human_sEH_IC50_uM>
3.4

> <Mouse_sEH_IC50_uM>
0.59

$$$$

SketchEl molfile

 20 21  0  0  0  0  0  0  0  0999 V2000
    2.4249    2.1000    0.0000 C   0  0  0  0  0  0  0  0  0  0  0  0
    2.4249    0.7000    0.0000 C   0  0  0  0  0  0  0  0  0  0  0  0
    3.6373    0.0000    0.0000 C   0  0  0  0  0  0  0  0  0  0  0  0
    4.8497    0.7000    0.0000 C   0  0  0  0  0  0  0  0  0  0  0  0
    4.8497    2.1000    0.0000 C   0  0  0  0  0  0  0  0  0  0  0  0
    3.6373    2.8000    0.0000 C   0  0  0  0  0  0  0  0  0  0  0  0
    6.0622    0.0000    0.0000 O   0  0  0  0  0  0  0  0  0  0  0  0
    7.2746    0.7000    0.0000 C   0  0  0  0  0  0  0  0  0  0  0  0
    8.4870    0.0000    0.0000 O   0  0  0  0  0  0  0  0  0  0  0  0
    7.2746    2.1000    0.0000 O   0  0  0  0  0  0  0  0  0  0  0  0
    9.6995    0.7000    0.0000 C   0  0  0  0  0  0  0  0  0  0  0  0
    1.2124    2.8000    0.0000 N   0  3  0  0  0  0  0  0  0  0  0  0
    1.2124    4.2000    0.0000 O   0  0  0  0  0  0  0  0  0  0  0  0
    0.0000    2.1000    0.0000 O   0  5  0  0  0  0  0  0  0  0  0  0
   10.9119    0.0000    0.0000 C   0  0  0  0  0  0  0  0  0  0  0  0
   12.1244    0.7000    0.0000 C   0  0  0  0  0  0  0  0  0  0  0  0
   13.3368    0.0000    0.0000 C   0  0  0  0  0  0  0  0  0  0  0  0
   10.9119    1.4000    0.0000 O   0  0  0  0  0  0  0  0  0  0  0  0
   14.5492    0.7000    0.0000 C   0  0  0  0  0  0  0  0  0  0  0  0
   15.7617    0.0000    0.0000 C   0  0  0  0  0  0  0  0  0  0  0  0
  1  2  2  0  0  0  0
  2  3  1  0  0  0  0
  3  4  2  0  0  0  0
  4  5  1  0  0  0  0
  5  6  2  0  0  0  0
  6  1  1  0  0  0  0
  4  7  1  0  0  0  0
  7  8  1  0  0  0  0
  8  9  1  0  0  0  0
  8 10  2  0  0  0  0
  9 11  1  0  0  0  0
  1 12  1  0  0  0  0
 11 15  1  0  0  0  0
 15 16  1  0  0  0  0
 16 17  1  0  0  0  0
 16 18  1  0  0  0  0
 15 18  1  0  0  0  0
 17 19  1  0  0  0  0
 19 20  1  0  0  0  0
 12 13  2  0  0  0  0
 12 14  1  0  0  0  0
M  CHG  2  12   1  14  -1
M  END
> <Molecule Name>
158

> <CDD Number>
CDD-15639

> <Human_sEH_IC50_uM>
500.0

> <Mouse_sEH_IC50_uM>
500.0

$$$$

SketchEl molfile

 16 16  0  0  0  0  0  0  0  0999 V2000
    3.6373    0.7993    0.0000 C   0  0  0  0  0  0  0  0  0  0  0  0
    4.8497    0.0993    0.0000 C   0  0  0  0  0  0  0  0  0  0  0  0
    6.0622    0.7993    0.0000 C   0  0  0  0  0  0  0  0  0  0  0  0
    7.2746    0.0993    0.0000 N   0  0  0  0  0  0  0  0  0  0  0  0
    8.4870    0.7993    0.0000 C   0  0  0  0  0  0  0  0  0  0  0  0
    9.6995    0.0993    0.0000 N   0  0  0  0  0  0  0  0  0  0  0  0
    8.4870    2.1993    0.0000 O   0  0  0  0  0  0  0  0  0  0  0  0
    2.4249    0.0993    0.0000 C   0  0  0  0  0  0  0  0  0  0  0  0
    1.2124    0.7993    0.0000 C   0  0  0  0  0  0  0  0  0  0  0  0
    0.0000    0.0993    0.0000 C   0  0  0  0  0  0  0  0  0  0  0  0
   10.6894    0.7000    0.0000 C   0  0  0  0  0  0  0  0  0  0  0  0
   11.9019    0.0000    0.0000 C   0  0  0  0  0  0  0  0  0  0  0  0
   13.1143    0.7000    0.0000 C   0  0  0  0  0  0  0  0  0  0  0  0
   13.1143    2.1000    0.0000 C   0  0  0  0  0  0  0  0  0  0  0  0
   11.9019    2.8000    0.0000 C   0  0  0  0  0  0  0  0  0  0  0  0
   10.6894    2.1000    0.0000 C   0  0  0  0  0  0  0  0  0  0  0  0
  1  2  1  0  0  0  0
  2  3  1  0  0  0  0
  3  4  1  0  0  0  0
  4  5  1  0  0  0  0
  5  6  1  0  0  0  0
  5  7  2  0  0  0  0
  1  8  1  0  0  0  0
  8  9  1  0  0  0  0
  9 10  1  0  0  0  0
  6 11  1  0  0  0  0
 11 12  2  0  0  0  0
 12 13  1  0  0  0  0
 13 14  2  0  0  0  0
 14 15  1  0  0  0  0
 15 16  2  0  0  0  0
 16 11  1  0  0  0  0
M  END
> <Molecule Name>
157

> <CDD Number>
CDD-15811

> <Human_sEH_IC50_uM>
1.43

> <Mouse_sEH_IC50_uM>
0.85

$$$$

SketchEl molfile

 21 22  0  0  0  0  0  0  0  0999 V2000
    2.5647    0.8987    0.0000 C   0  0  0  0  0  0  0  0  0  0  0  0
    3.7772    0.1987    0.0000 C   0  0  0  0  0  0  0  0  0  0  0  0
    4.9896    0.8987    0.0000 C   0  0  0  0  0  0  0  0  0  0  0  0
    4.9896    2.2987    0.0000 C   0  0  0  0  0  0  0  0  0  0  0  0
    3.7772    2.9987    0.0000 C   0  0  0  0  0  0  0  0  0  0  0  0
    2.5647    2.2987    0.0000 C   0  0  0  0  0  0  0  0  0  0  0  0
    1.3523    2.9987    0.0000 C   0  0  0  0  0  0  0  0  0  0  0  0
    0.9899    4.3510    0.0000 C   0  0  0  0  0  0  0  0  0  0  0  0
    0.0000    2.6363    0.0000 C   0  0  0  0  0  0  0  0  0  0  0  0
    6.2020    0.1987    0.0000 N   0  0  0  0  0  0  0  0  0  0  0  0
    7.1920    0.7993    0.0000 C   0  0  0  0  0  0  0  0  0  0  0  0
    8.4044    0.0993    0.0000 N   0  0  0  0  0  0  0  0  0  0  0  0
    7.1920    2.1993    0.0000 O   0  0  0  0  0  0  0  0  0  0  0  0
    9.3944    0.7000    0.0000 C   0  0  0  0  0  0  0  0  0  0  0  0
   10.6068    0.0000    0.0000 C   0  0  0  0  0  0  0  0  0  0  0  0
   11.8192    0.7000    0.0000 C   0  0  0  0  0  0  0  0  0  0  0  0
   13.0317    0.0000    0.0000 C   0  0  0  0  0  0  0  0  0  0  0  0
   14.2441    0.7000    0.0000 C   0  0  0  0  0  0  0  0  0  0  0  0
   14.2441    2.1000    0.0000 C   0  0  0  0  0  0  0  0  0  0  0  0
   13.0317    2.8000    0.0000 C   0  0  0  0  0  0  0  0  0  0  0  0
   11.8192    2.1000    0.0000 C   0  0  0  0  0  0  0  0  0  0  0  0
  1  2  2  0  0  0  0
  2  3  1  0  0  0  0
  3  4  2  0  0  0  0
  4  5  1  0  0  0  0
  5  6  2  0  0  0  0
  6  1  1  0  0  0  0
  6  7  1  0  0  0  0
  7  8  1  0  0  0  0
  7  9  1  0  0  0  0
  3 10  1  0  0  0  0
 10 11  1  0  0  0  0
 11 12  1  0  0  0  0
 11 13  2  0  0  0  0
 12 14  1  0  0  0  0
 14 15  1  0  0  0  0
 15 16  1  0  0  0  0
 16 17  2  0  0  0  0
 17 18  1  0  0  0  0
 18 19  2  0  0  0  0
 19 20  1  0  0  0  0
 20 21  2  0  0  0  0
 21 16  1  0  0  0  0
M  END
> <Molecule Name>
156

> <CDD Number>
CDD-16030

> <Human_sEH_IC50_uM>
0.48

> <Mouse_sEH_IC50_uM>
0.2

$$$$

SketchEl molfile

 17 17  0  0  0  0  0  0  0  0999 V2000
    2.5647    0.8987    0.0000 C   0  0  0  0  0  0  0  0  0  0  0  0
    3.7772    0.1987    0.0000 C   0  0  0  0  0  0  0  0  0  0  0  0
    4.9896    0.8987    0.0000 C   0  0  0  0  0  0  0  0  0  0  0  0
    4.9896    2.2987    0.0000 C   0  0  0  0  0  0  0  0  0  0  0  0
    3.7772    2.9987    0.0000 C   0  0  0  0  0  0  0  0  0  0  0  0
    2.5647    2.2987    0.0000 C   0  0  0  0  0  0  0  0  0  0  0  0
    1.3523    2.9987    0.0000 C   0  0  0  0  0  0  0  0  0  0  0  0
    0.9899    4.3510    0.0000 C   0  0  0  0  0  0  0  0  0  0  0  0
    0.0000    2.6363    0.0000 C   0  0  0  0  0  0  0  0  0  0  0  0
    6.2020    0.1987    0.0000 N   0  0  0  0  0  0  0  0  0  0  0  0
    7.1920    0.7993    0.0000 C   0  0  0  0  0  0  0  0  0  0  0  0
    8.4044    0.0993    0.0000 N   0  0  0  0  0  0  0  0  0  0  0  0
    7.1920    2.1993    0.0000 O   0  0  0  0  0  0  0  0  0  0  0  0
    9.3944    0.7000    0.0000 C   0  0  0  0  0  0  0  0  0  0  0  0
   10.6068    0.0000    0.0000 C   0  0  0  0  0  0  0  0  0  0  0  0
   11.8192    0.7000    0.0000 O   0  0  0  0  0  0  0  0  0  0  0  0
   13.0317    0.0000    0.0000 C   0  0  0  0  0  0  0  0  0  0  0  0
  1  2  2  0  0  0  0
  2  3  1  0  0  0  0
  3  4  2  0  0  0  0
  4  5  1  0  0  0  0
  5  6  2  0  0  0  0
  6  1  1  0  0  0  0
  6  7  1  0  0  0  0
  7  8  1  0  0  0  0
  7  9  1  0  0  0  0
  3 10  1  0  0  0  0
 10 11  1  0  0  0  0
 11 12  1  0  0  0  0
 11 13  2  0  0  0  0
 12 14  1  0  0  0  0
 14 15  1  0  0  0  0
 15 16  1  0  0  0  0
 16 17  1  0  0  0  0
M  END
> <Molecule Name>
154

> <CDD Number>
CDD-16028

> <Human_sEH_IC50_uM>
15.2

> <Mouse_sEH_IC50_uM>
17.1

$$$$

SketchEl molfile

 18 19  0  0  0  0  0  0  0  0999 V2000
    2.4249    0.7728    0.0000 C   0  0  0  0  0  0  0  0  0  0  0  0
    3.6373    0.0728    0.0000 N   0  0  0  0  0  0  0  0  0  0  0  0
    4.8497    0.7728    0.0000 C   0  0  0  0  0  0  0  0  0  0  0  0
    6.0622    0.0728    0.0000 N   0  0  0  0  0  0  0  0  0  0  0  0
    4.8497    2.1728    0.0000 O   0  0  0  0  0  0  0  0  0  0  0  0
    7.0521    0.6734    0.0000 C   0  0  0  0  0  0  0  0  0  0  0  0
    2.4249    2.1728    0.0000 C   0  0  0  0  0  0  0  0  0  0  0  0
    1.2124    2.8728    0.0000 C   0  0  0  0  0  0  0  0  0  0  0  0
    0.0000    2.1728    0.0000 C   0  0  0  0  0  0  0  0  0  0  0  0
    0.0000    0.7728    0.0000 C   0  0  0  0  0  0  0  0  0  0  0  0
    1.2124    0.0728    0.0000 C   0  0  0  0  0  0  0  0  0  0  0  0
    8.2795    0.0000    0.0000 C   0  0  0  0  0  0  0  0  0  0  0  0
    9.4920    0.7000    0.0000 C   0  0  0  0  0  0  0  0  0  0  0  0
   10.7044    0.0000    0.0000 C   0  0  0  0  0  0  0  0  0  0  0  0
   11.9168    0.7000    0.0000 C   0  0  0  0  0  0  0  0  0  0  0  0
   11.9168    2.1000    0.0000 C   0  0  0  0  0  0  0  0  0  0  0  0
   10.7044    2.8000    0.0000 C   0  0  0  0  0  0  0  0  0  0  0  0
    9.4920    2.1000    0.0000 C   0  0  0  0  0  0  0  0  0  0  0  0
  1  2  1  0  0  0  0
  2  3  1  0  0  0  0
  3  4  1  0  0  0  0
  3  5  2  0  0  0  0
  4  6  1  0  0  0  0
  1  7  2  0  0  0  0
  7  8  1  0  0  0  0
  8  9  2  0  0  0  0
  9 10  1  0  0  0  0
 10 11  2  0  0  0  0
 11  1  1  0  0  0  0
  6 12  1  0  0  0  0
 12 13  1  0  0  0  0
 13 14  2  0  0  0  0
 14 15  1  0  0  0  0
 15 16  2  0  0  0  0
 16 17  1  0  0  0  0
 17 18  2  0  0  0  0
 18 13  1  0  0  0  0
M  END
> <Molecule Name>
152

> <CDD Number>
CDD-16007

> <Human_sEH_IC50_uM>
2.99

> <Mouse_sEH_IC50_uM>
8.0

$$$$

SketchEl molfile

 18 18  0  0  0  0  0  0  0  0999 V2000
    6.0622    0.7000    0.0000 C   0  0  0  0  0  0  0  0  0  0  0  0
    7.2746    0.0000    0.0000 C   0  0  0  0  0  0  0  0  0  0  0  0
    8.4870    0.7000    0.0000 C   0  0  0  0  0  0  0  0  0  0  0  0
    9.6995    0.0000    0.0000 N   0  0  0  0  0  0  0  0  0  0  0  0
   10.9119    0.7000    0.0000 C   0  0  0  0  0  0  0  0  0  0  0  0
   12.1244    0.0000    0.0000 N   0  0  0  0  0  0  0  0  0  0  0  0
   10.9119    2.1000    0.0000 O   0  0  0  0  0  0  0  0  0  0  0  0
    4.8497    0.0000    0.0000 C   0  0  0  0  0  0  0  0  0  0  0  0
    3.6373    0.7000    0.0000 C   0  0  0  0  0  0  0  0  0  0  0  0
    2.4249    0.0000    0.0000 C   0  0  0  0  0  0  0  0  0  0  0  0
    1.2124    0.7000    0.0000 C   0  0  0  0  0  0  0  0  0  0  0  0
    0.0000    0.0000    0.0000 C   0  0  0  0  0  0  0  0  0  0  0  0
   13.3368    0.7000    0.0000 C   0  0  0  0  0  0  0  0  0  0  0  0
   14.5492    0.0000    0.0000 C   0  0  0  0  0  0  0  0  0  0  0  0
   15.7617    0.7000    0.0000 C   0  0  0  0  0  0  0  0  0  0  0  0
   15.7617    2.1000    0.0000 C   0  0  0  0  0  0  0  0  0  0  0  0
   14.5492    2.8000    0.0000 C   0  0  0  0  0  0  0  0  0  0  0  0
   13.3368    2.1000    0.0000 C   0  0  0  0  0  0  0  0  0  0  0  0
  1  2  1  0  0  0  0
  2  3  1  0  0  0  0
  3  4  1  0  0  0  0
  4  5  1  0  0  0  0
  5  6  1  0  0  0  0
  5  7  2  0  0  0  0
  1  8  1  0  0  0  0
  8  9  1  0  0  0  0
  9 10  1  0  0  0  0
 10 11  1  0  0  0  0
 11 12  1  0  0  0  0
  6 13  1  0  0  0  0
 13 14  2  0  0  0  0
 14 15  1  0  0  0  0
 15 16  2  0  0  0  0
 16 17  1  0  0  0  0
 17 18  2  0  0  0  0
 18 13  1  0  0  0  0
M  END
> <Molecule Name>
151

> <CDD Number>
CDD-15827

> <Human_sEH_IC50_uM>
0.58

> <Mouse_sEH_IC50_uM>
2.29

$$$$

SketchEl molfile

 20 20  0  0  0  0  0  0  0  0999 V2000
    8.4870    0.7993    0.0000 C   0  0  0  0  0  0  0  0  0  0  0  0
    9.6995    0.0993    0.0000 C   0  0  0  0  0  0  0  0  0  0  0  0
   10.9119    0.7993    0.0000 C   0  0  0  0  0  0  0  0  0  0  0  0
   12.1244    0.0993    0.0000 N   0  0  0  0  0  0  0  0  0  0  0  0
   13.3368    0.7993    0.0000 C   0  0  0  0  0  0  0  0  0  0  0  0
   14.5492    0.0993    0.0000 N   0  0  0  0  0  0  0  0  0  0  0  0
   13.3368    2.1993    0.0000 O   0  0  0  0  0  0  0  0  0  0  0  0
    7.2746    0.0993    0.0000 C   0  0  0  0  0  0  0  0  0  0  0  0
    6.0622    0.7993    0.0000 C   0  0  0  0  0  0  0  0  0  0  0  0
    4.8497    0.0993    0.0000 C   0  0  0  0  0  0  0  0  0  0  0  0
    3.6373    0.7993    0.0000 C   0  0  0  0  0  0  0  0  0  0  0  0
    2.4249    0.0993    0.0000 C   0  0  0  0  0  0  0  0  0  0  0  0
   15.5392    0.7000    0.0000 C   0  0  0  0  0  0  0  0  0  0  0  0
    1.2124    0.7993    0.0000 C   0  0  0  0  0  0  0  0  0  0  0  0
    0.0000    0.0993    0.0000 C   0  0  0  0  0  0  0  0  0  0  0  0
   16.7516    0.0000    0.0000 C   0  0  0  0  0  0  0  0  0  0  0  0
   17.9640    0.7000    0.0000 C   0  0  0  0  0  0  0  0  0  0  0  0
   17.9640    2.1000    0.0000 C   0  0  0  0  0  0  0  0  0  0  0  0
   16.7516    2.8000    0.0000 C   0  0  0  0  0  0  0  0  0  0  0  0
   15.5392    2.1000    0.0000 C   0  0  0  0  0  0  0  0  0  0  0  0
  1  2  1  0  0  0  0
  2  3  1  0  0  0  0
  3  4  1  0  0  0  0
  4  5  1  0  0  0  0
  5  6  1  0  0  0  0
  5  7  2  0  0  0  0
  1  8  1  0  0  0  0
  8  9  1  0  0  0  0
  9 10  1  0  0  0  0
 10 11  1  0  0  0  0
 11 12  1  0  0  0  0
  6 13  1  0  0  0  0
 12 14  1  0  0  0  0
 14 15  1  0  0  0  0
 13 16  2  0  0  0  0
 16 17  1  0  0  0  0
 17 18  2  0  0  0  0
 18 19  1  0  0  0  0
 19 20  2  0  0  0  0
 20 13  1  0  0  0  0
M  END
> <Molecule Name>
148

> <CDD Number>
CDD-15833

> <Human_sEH_IC50_uM>
0.61

> <Mouse_sEH_IC50_uM>
0.21

$$$$

SketchEl molfile

 15 15  0  0  0  0  0  0  0  0999 V2000
    6.3985    0.0993    0.0000 N   0  0  0  0  0  0  0  0  0  0  0  0
    7.6109    0.7993    0.0000 C   0  0  0  0  0  0  0  0  0  0  0  0
    8.8233    0.0993    0.0000 N   0  0  0  0  0  0  0  0  0  0  0  0
    7.6109    2.1993    0.0000 O   0  0  0  0  0  0  0  0  0  0  0  0
    9.8133    0.7000    0.0000 C   0  0  0  0  0  0  0  0  0  0  0  0
    4.8497    0.7993    0.0000 C   0  0  0  0  0  0  0  0  0  0  0  0
    3.6373    0.0993    0.0000 C   0  0  0  0  0  0  0  0  0  0  0  0
    2.4249    0.7993    0.0000 C   0  0  0  0  0  0  0  0  0  0  0  0
    2.4249    2.1993    0.0000 C   0  0  0  0  0  0  0  0  0  0  0  0
    1.2124    2.8993    0.0000 C   0  0  0  0  0  0  0  0  0  0  0  0
    0.0000    2.1993    0.0000 C   0  0  0  0  0  0  0  0  0  0  0  0
    0.0000    0.7993    0.0000 C   0  0  0  0  0  0  0  0  0  0  0  0
    1.2124    0.0993    0.0000 C   0  0  0  0  0  0  0  0  0  0  0  0
   11.0257    0.0000    0.0000 C   0  0  0  0  0  0  0  0  0  0  0  0
   12.2382    0.7000    0.0000 C   0  0  0  0  0  0  0  0  0  0  0  0
  1  2  1  0  0  0  0
  2  3  1  0  0  0  0
  2  4  2  0  0  0  0
  3  5  1  0  0  0  0
  1  6  1  0  0  0  0
  6  7  1  0  0  0  0
  7  8  1  0  0  0  0
  8  9  2  0  0  0  0
  9 10  1  0  0  0  0
 10 11  2  0  0  0  0
 11 12  1  0  0  0  0
 12 13  2  0  0  0  0
 13  8  1  0  0  0  0
  5 14  1  0  0  0  0
 14 15  1  0  0  0  0
M  END
> <Molecule Name>
147

> <CDD Number>
CDD-16064

> <Human_sEH_IC50_uM>
21.6

> <Mouse_sEH_IC50_uM>
24.3

$$$$

SketchEl molfile

 13 12  0  0  0  0  0  0  0  0999 V2000
    0.0000    0.7000    0.0000 C   0  0  0  0  0  0  0  0  0  0  0  0
    0.0000    2.1000    0.0000 N   0  0  0  0  0  0  0  0  0  0  0  0
    1.2124    2.8000    0.0000 C   0  0  0  0  0  0  0  0  0  0  0  0
    2.4249    2.1000    0.0000 N   0  0  0  0  0  0  0  0  0  0  0  0
    1.2124    4.2000    0.0000 O   0  0  0  0  0  0  0  0  0  0  0  0
    3.6373    2.8000    0.0000 C   0  0  0  0  0  0  0  0  0  0  0  0
    4.8497    2.1000    0.0000 C   0  0  0  0  0  0  0  0  0  0  0  0
    6.0622    2.8000    0.0000 O   0  0  0  0  0  0  0  0  0  0  0  0
    4.8497    0.7000    0.0000 O   0  0  0  0  0  0  0  0  0  0  0  0
    7.2746    2.1000    0.0000 C   0  0  0  0  0  0  0  0  0  0  0  0
    8.4870    2.8000    0.0000 C   0  0  0  0  0  0  0  0  0  0  0  0
    6.0622    0.0000    0.0000 C   0  0  0  0  0  0  0  0  0  0  0  0
    7.2746    0.7000    0.0000 C   0  0  0  0  0  0  0  0  0  0  0  0
  1  2  1  0  0  0  0
  2  3  1  0  0  0  0
  3  4  1  0  0  0  0
  3  5  2  0  0  0  0
  4  6  1  0  0  0  0
  6  7  1  0  0  0  0
  7  8  1  0  0  0  0
  7  9  1  0  0  0  0
  8 10  1  0  0  0  0
 10 11  1  0  0  0  0
  9 12  1  0  0  0  0
 12 13  1  0  0  0  0
M  END
> <Molecule Name>
146

> <CDD Number>
CDD-15798

> <Human_sEH_IC50_uM>
500.0

> <Mouse_sEH_IC50_uM>
500.0

$$$$

SketchEl molfile

 20 20  0  0  0  0  0  0  0  0999 V2000
    2.4249    2.6852    0.0000 C   0  0  0  0  0  0  0  0  0  0  0  0
    3.6373    1.9852    0.0000 N   0  0  0  0  0  0  0  0  0  0  0  0
    4.8497    2.6852    0.0000 C   0  0  0  0  0  0  0  0  0  0  0  0
    6.0622    1.9852    0.0000 N   0  0  0  0  0  0  0  0  0  0  0  0
    4.8497    4.0852    0.0000 O   0  0  0  0  0  0  0  0  0  0  0  0
    7.0521    2.5859    0.0000 C   0  0  0  0  0  0  0  0  0  0  0  0
    2.4249    4.0852    0.0000 C   0  0  0  0  0  0  0  0  0  0  0  0
    1.2124    4.7852    0.0000 C   0  0  0  0  0  0  0  0  0  0  0  0
    0.0000    4.0852    0.0000 C   0  0  0  0  0  0  0  0  0  0  0  0
    0.0000    2.6852    0.0000 C   0  0  0  0  0  0  0  0  0  0  0  0
    1.2124    1.9852    0.0000 C   0  0  0  0  0  0  0  0  0  0  0  0
    8.2795    1.9124    0.0000 C   0  0  0  0  0  0  0  0  0  0  0  0
    9.4920    2.6124    0.0000 C   0  0  0  0  0  0  0  0  0  0  0  0
   10.7044    1.9124    0.0000 C   0  0  0  0  0  0  0  0  0  0  0  0
   11.9168    2.6124    0.0000 O   0  0  0  0  0  0  0  0  0  0  0  0
   11.4044    0.7000    0.0000 O   0  0  0  0  0  0  0  0  0  0  0  0
   12.6168    0.0000    0.0000 C   0  0  0  0  0  0  0  0  0  0  0  0
   14.0168    0.0000    0.0000 C   0  0  0  0  0  0  0  0  0  0  0  0
   13.2691    2.2501    0.0000 C   0  0  0  0  0  0  0  0  0  0  0  0
   14.2591    1.2601    0.0000 C   0  0  0  0  0  0  0  0  0  0  0  0
  1  2  1  0  0  0  0
  2  3  1  0  0  0  0
  3  4  1  0  0  0  0
  3  5  2  0  0  0  0
  4  6  1  0  0  0  0
  1  7  2  0  0  0  0
  7  8  1  0  0  0  0
  8  9  2  0  0  0  0
  9 10  1  0  0  0  0
 10 11  2  0  0  0  0
 11  1  1  0  0  0  0
  6 12  1  0  0  0  0
 12 13  1  0  0  0  0
 13 14  1  0  0  0  0
 14 15  1  0  0  0  0
 14 16  1  0  0  0  0
 16 17  1  0  0  0  0
 17 18  1  0  0  0  0
 15 19  1  0  0  0  0
 19 20  1  0  0  0  0
M  END
> <Molecule Name>
145

> <CDD Number>
CDD-16003

> <Human_sEH_IC50_uM>
15.4

> <Mouse_sEH_IC50_uM>
5.6

$$$$

SketchEl molfile

 18 18  0  0  0  0  0  0  0  0999 V2000
    0.0000    4.3024    0.0000 C   0  0  0  0  0  0  0  0  0  0  0  0
    0.0000    2.9024    0.0000 C   0  0  0  0  0  0  0  0  0  0  0  0
    1.2124    2.2024    0.0000 C   0  0  0  0  0  0  0  0  0  0  0  0
    2.4249    2.9024    0.0000 C   0  0  0  0  0  0  0  0  0  0  0  0
    2.4249    4.3024    0.0000 C   0  0  0  0  0  0  0  0  0  0  0  0
    1.2124    5.0024    0.0000 C   0  0  0  0  0  0  0  0  0  0  0  0
    3.6373    2.2024    0.0000 N   0  0  0  0  0  0  0  0  0  0  0  0
    4.8497    2.9024    0.0000 C   0  0  0  0  0  0  0  0  0  0  0  0
    6.0622    2.2024    0.0000 N   0  0  0  0  0  0  0  0  0  0  0  0
    4.8497    4.3024    0.0000 O   0  0  0  0  0  0  0  0  0  0  0  0
    7.2746    2.9024    0.0000 C   0  0  0  0  0  0  0  0  0  0  0  0
    8.4870    2.2024    0.0000 C   0  0  0  0  0  0  0  0  0  0  0  0
    9.4770    3.1923    0.0000 O   0  0  0  0  0  0  0  0  0  0  0  0
    9.1870    0.9899    0.0000 O   0  0  0  0  0  0  0  0  0  0  0  0
   10.8293    3.5547    0.0000 C   0  0  0  0  0  0  0  0  0  0  0  0
   12.0417    2.8547    0.0000 C   0  0  0  0  0  0  0  0  0  0  0  0
   10.1770    0.0000    0.0000 C   0  0  0  0  0  0  0  0  0  0  0  0
   11.5770    0.0000    0.0000 C   0  0  0  0  0  0  0  0  0  0  0  0
  1  2  2  0  0  0  0
  2  3  1  0  0  0  0
  3  4  2  0  0  0  0
  4  5  1  0  0  0  0
  5  6  2  0  0  0  0
  6  1  1  0  0  0  0
  4  7  1  0  0  0  0
  7  8  1  0  0  0  0
  8  9  1  0  0  0  0
  8 10  2  0  0  0  0
  9 11  1  0  0  0  0
 11 12  1  0  0  0  0
 12 13  1  0  0  0  0
 12 14  1  0  0  0  0
 13 15  1  0  0  0  0
 15 16  1  0  0  0  0
 14 17  1  0  0  0  0
 17 18  1  0  0  0  0
M  END
> <Molecule Name>
144

> <CDD Number>
CDD-16002

> <Human_sEH_IC50_uM>
68.0

> <Mouse_sEH_IC50_uM>
64.0

$$$$

SketchEl molfile

 20 21  0  0  0  0  0  0  0  0999 V2000
    3.6373    0.7993    0.0000 C   0  0  0  0  0  0  0  0  0  0  0  0
    4.8497    0.0993    0.0000 C   0  0  0  0  0  0  0  0  0  0  0  0
    6.0622    0.7993    0.0000 C   0  0  0  0  0  0  0  0  0  0  0  0
    7.2746    0.0993    0.0000 N   0  0  0  0  0  0  0  0  0  0  0  0
    8.4870    0.7993    0.0000 C   0  0  0  0  0  0  0  0  0  0  0  0
    9.6995    0.0993    0.0000 N   0  0  0  0  0  0  0  0  0  0  0  0
    8.4870    2.1993    0.0000 O   0  0  0  0  0  0  0  0  0  0  0  0
    2.4249    0.0993    0.0000 C   0  0  0  0  0  0  0  0  0  0  0  0
    1.2124    0.7993    0.0000 C   0  0  0  0  0  0  0  0  0  0  0  0
    0.0000    0.0993    0.0000 C   0  0  0  0  0  0  0  0  0  0  0  0
   10.6894    0.7000    0.0000 C   0  0  0  0  0  0  0  0  0  0  0  0
   11.9019    0.0000    0.0000 C   0  0  0  0  0  0  0  0  0  0  0  0
   13.1143    0.7000    0.0000 C   0  0  0  0  0  0  0  0  0  0  0  0
   13.1143    2.1000    0.0000 C   0  0  0  0  0  0  0  0  0  0  0  0
   11.9019    2.8000    0.0000 C   0  0  0  0  0  0  0  0  0  0  0  0
   10.6894    2.1000    0.0000 C   0  0  0  0  0  0  0  0  0  0  0  0
   14.3267    0.0000    0.0000 C   0  0  0  0  0  0  0  0  0  0  0  0
   15.5392    0.7000    0.0000 C   0  0  0  0  0  0  0  0  0  0  0  0
   15.5392    2.1000    0.0000 C   0  0  0  0  0  0  0  0  0  0  0  0
   14.3267    2.8000    0.0000 C   0  0  0  0  0  0  0  0  0  0  0  0
  1  2  1  0  0  0  0
  2  3  1  0  0  0  0
  3  4  1  0  0  0  0
  4  5  1  0  0  0  0
  5  6  1  0  0  0  0
  5  7  2  0  0  0  0
  1  8  1  0  0  0  0
  8  9  1  0  0  0  0
  9 10  1  0  0  0  0
  6 11  1  0  0  0  0
 11 12  2  0  0  0  0
 12 13  1  0  0  0  0
 13 14  2  0  0  0  0
 14 15  1  0  0  0  0
 15 16  2  0  0  0  0
 16 11  1  0  0  0  0
 13 17  1  0  0  0  0
 17 18  2  0  0  0  0
 18 19  1  0  0  0  0
 19 20  2  0  0  0  0
 20 14  1  0  0  0  0
M  END
> <Molecule Name>
143

> <CDD Number>
CDD-15812

> <Human_sEH_IC50_uM>
0.57

> <Mouse_sEH_IC50_uM>
1.0

$$$$

SketchEl molfile

 13 13  0  0  0  0  0  0  0  0999 V2000
    6.3985    0.0000    0.0000 N   0  0  0  0  0  0  0  0  0  0  0  0
    7.6109    0.7000    0.0000 C   0  0  0  0  0  0  0  0  0  0  0  0
    8.8233    0.0000    0.0000 N   0  0  0  0  0  0  0  0  0  0  0  0
    7.6109    2.1000    0.0000 O   0  0  0  0  0  0  0  0  0  0  0  0
    9.8133    0.6007    0.0000 C   0  0  0  0  0  0  0  0  0  0  0  0
    4.8497    0.7000    0.0000 C   0  0  0  0  0  0  0  0  0  0  0  0
    3.6373    0.0000    0.0000 C   0  0  0  0  0  0  0  0  0  0  0  0
    2.4249    0.7000    0.0000 C   0  0  0  0  0  0  0  0  0  0  0  0
    2.4249    2.1000    0.0000 C   0  0  0  0  0  0  0  0  0  0  0  0
    1.2124    2.8000    0.0000 C   0  0  0  0  0  0  0  0  0  0  0  0
    0.0000    2.1000    0.0000 C   0  0  0  0  0  0  0  0  0  0  0  0
    0.0000    0.7000    0.0000 C   0  0  0  0  0  0  0  0  0  0  0  0
    1.2124    0.0000    0.0000 C   0  0  0  0  0  0  0  0  0  0  0  0
  1  2  1  0  0  0  0
  2  3  1  0  0  0  0
  2  4  2  0  0  0  0
  3  5  1  0  0  0  0
  1  6  1  0  0  0  0
  6  7  1  0  0  0  0
  7  8  1  0  0  0  0
  8  9  2  0  0  0  0
  9 10  1  0  0  0  0
 10 11  2  0  0  0  0
 11 12  1  0  0  0  0
 12 13  2  0  0  0  0
 13  8  1  0  0  0  0
M  END
> <Molecule Name>
141

> <CDD Number>
CDD-16063

> <Human_sEH_IC50_uM>
353.0

> <Mouse_sEH_IC50_uM>
188.0

$$$$

SketchEl molfile

 24 26  0  0  0  0  0  0  0  0999 V2000
    7.2746    0.7000    0.0000 C   0  0  0  0  0  0  0  0  0  0  0  0
    6.0622    0.0000    0.0000 N   0  0  0  0  0  0  0  0  0  0  0  0
    4.8497    0.7000    0.0000 C   0  0  0  0  0  0  0  0  0  0  0  0
    3.6373    0.0000    0.0000 N   0  0  0  0  0  0  0  0  0  0  0  0
    4.8497    2.1000    0.0000 O   0  0  0  0  0  0  0  0  0  0  0  0
    2.4249    0.7000    0.0000 C   0  0  0  0  0  0  0  0  0  0  0  0
    8.4870    0.0000    0.0000 C   0  0  0  0  0  0  0  0  0  0  0  0
    9.6995    0.7000    0.0000 C   0  0  0  0  0  0  0  0  0  0  0  0
    9.6995    2.1000    0.0000 C   0  0  0  0  0  0  0  0  0  0  0  0
    8.4870    2.8000    0.0000 C   0  0  0  0  0  0  0  0  0  0  0  0
    7.2746    2.1000    0.0000 C   0  0  0  0  0  0  0  0  0  0  0  0
    2.4249    2.1000    0.0000 C   0  0  0  0  0  0  0  0  0  0  0  0
    1.2124    2.8000    0.0000 C   0  0  0  0  0  0  0  0  0  0  0  0
    0.0000    2.1000    0.0000 C   0  0  0  0  0  0  0  0  0  0  0  0
    0.0000    0.7000    0.0000 C   0  0  0  0  0  0  0  0  0  0  0  0
    1.2124    0.0000    0.0000 C   0  0  0  0  0  0  0  0  0  0  0  0
   10.9119    2.8000    0.0000 C   0  0  0  0  0  0  0  0  0  0  0  0
   12.1244    2.1000    0.0000 C   0  0  0  0  0  0  0  0  0  0  0  0
   10.9119    4.2000    0.0000 O   0  0  0  0  0  0  0  0  0  0  0  0
   12.1244    0.7000    0.0000 C   0  0  0  0  0  0  0  0  0  0  0  0
   13.3368    0.0000    0.0000 C   0  0  0  0  0  0  0  0  0  0  0  0
   14.5492    0.7000    0.0000 C   0  0  0  0  0  0  0  0  0  0  0  0
   14.5492    2.1000    0.0000 C   0  0  0  0  0  0  0  0  0  0  0  0
   13.3368    2.8000    0.0000 C   0  0  0  0  0  0  0  0  0  0  0  0
  1  2  1  0  0  0  0
  2  3  1  0  0  0  0
  3  4  1  0  0  0  0
  3  5  2  0  0  0  0
  4  6  1  0  0  0  0
  1  7  2  0  0  0  0
  7  8  1  0  0  0  0
  8  9  2  0  0  0  0
  9 10  1  0  0  0  0
 10 11  2  0  0  0  0
 11  1  1  0  0  0  0
  6 12  1  0  0  0  0
 12 13  1  0  0  0  0
 13 14  1  0  0  0  0
 14 15  1  0  0  0  0
 15 16  1  0  0  0  0
 16  6  1  0  0  0  0
  9 17  1  0  0  0  0
 17 18  1  0  0  0  0
 17 19  2  0  0  0  0
 18 20  2  0  0  0  0
 20 21  1  0  0  0  0
 21 22  2  0  0  0  0
 22 23  1  0  0  0  0
 23 24  2  0  0  0  0
 24 18  1  0  0  0  0
M  END
> <Molecule Name>
140

> <CDD Number>
CDD-15980

> <Human_sEH_IC50_uM>
0.1

> <Mouse_sEH_IC50_uM>
0.05

$$$$

SketchEl molfile

 18 18  0  0  0  0  0  0  0  0999 V2000
    1.2124    2.2987    0.0000 C   0  0  0  0  0  0  0  0  0  0  0  0
    2.4249    1.5987    0.0000 C   0  0  0  0  0  0  0  0  0  0  0  0
    3.6373    2.2987    0.0000 C   0  0  0  0  0  0  0  0  0  0  0  0
    3.6373    3.6987    0.0000 C   0  0  0  0  0  0  0  0  0  0  0  0
    2.4249    4.3987    0.0000 C   0  0  0  0  0  0  0  0  0  0  0  0
    1.2124    3.6987    0.0000 C   0  0  0  0  0  0  0  0  0  0  0  0
    4.8497    1.5987    0.0000 N   0  0  0  0  0  0  0  0  0  0  0  0
    5.8397    2.1993    0.0000 C   0  0  0  0  0  0  0  0  0  0  0  0
    7.0521    1.4993    0.0000 N   0  0  0  0  0  0  0  0  0  0  0  0
    5.8397    3.5993    0.0000 O   0  0  0  0  0  0  0  0  0  0  0  0
    8.0421    2.1000    0.0000 C   0  0  0  0  0  0  0  0  0  0  0  0
    0.0000    4.3987    0.0000 Cl  0  0  0  0  0  0  0  0  0  0  0  0
    0.0000    1.5987    0.0000 Cl  0  0  0  0  0  0  0  0  0  0  0  0
    9.2545    1.4000    0.0000 C   0  0  0  0  0  0  0  0  0  0  0  0
   10.4669    2.1000    0.0000 C   0  0  0  0  0  0  0  0  0  0  0  0
   11.6794    1.4000    0.0000 C   0  0  0  0  0  0  0  0  0  0  0  0
   12.8918    2.1000    0.0000 O   0  0  0  0  0  0  0  0  0  0  0  0
   11.6794    0.0000    0.0000 O   0  0  0  0  0  0  0  0  0  0  0  0
  1  2  2  0  0  0  0
  2  3  1  0  0  0  0
  3  4  2  0  0  0  0
  4  5  1  0  0  0  0
  5  6  2  0  0  0  0
  6  1  1  0  0  0  0
  3  7  1  0  0  0  0
  7  8  1  0  0  0  0
  8  9  1  0  0  0  0
  8 10  2  0  0  0  0
  9 11  1  0  0  0  0
  6 12  1  0  0  0  0
  1 13  1  0  0  0  0
 11 14  1  0  0  0  0
 14 15  1  0  0  0  0
 15 16  1  0  0  0  0
 16 17  1  0  0  0  0
 16 18  2  0  0  0  0
M  END
> <Molecule Name>
129

> <CDD Number>
CDD-16048

> <Human_sEH_IC50_uM>
500.0

> <Mouse_sEH_IC50_uM>
500.0

$$$$

SketchEl molfile

 17 18  0  0  0  0  0  0  0  0999 V2000
    7.2746    0.7000    0.0000 C   0  0  0  0  0  0  0  0  0  0  0  0
    6.0622    0.0000    0.0000 N   0  0  0  0  0  0  0  0  0  0  0  0
    4.8497    0.7000    0.0000 C   0  0  0  0  0  0  0  0  0  0  0  0
    3.6373    0.0000    0.0000 N   0  0  0  0  0  0  0  0  0  0  0  0
    4.8497    2.1000    0.0000 O   0  0  0  0  0  0  0  0  0  0  0  0
    2.4249    0.7000    0.0000 C   0  0  0  0  0  0  0  0  0  0  0  0
    2.4249    2.1000    0.0000 C   0  0  0  0  0  0  0  0  0  0  0  0
    1.2124    2.8000    0.0000 C   0  0  0  0  0  0  0  0  0  0  0  0
    0.0000    2.1000    0.0000 C   0  0  0  0  0  0  0  0  0  0  0  0
    0.0000    0.7000    0.0000 C   0  0  0  0  0  0  0  0  0  0  0  0
    1.2124    0.0000    0.0000 C   0  0  0  0  0  0  0  0  0  0  0  0
    8.4870    0.0000    0.0000 C   0  0  0  0  0  0  0  0  0  0  0  0
    9.6995    0.7000    0.0000 C   0  0  0  0  0  0  0  0  0  0  0  0
    9.6995    2.1000    0.0000 C   0  0  0  0  0  0  0  0  0  0  0  0
    8.4870    2.8000    0.0000 C   0  0  0  0  0  0  0  0  0  0  0  0
    7.2746    2.1000    0.0000 C   0  0  0  0  0  0  0  0  0  0  0  0
   10.9119    2.8000    0.0000 O   0  0  0  0  0  0  0  0  0  0  0  0
  1  2  1  0  0  0  0
  2  3  1  0  0  0  0
  3  4  1  0  0  0  0
  3  5  2  0  0  0  0
  4  6  1  0  0  0  0
  6  7  1  0  0  0  0
  7  8  1  0  0  0  0
  8  9  1  0  0  0  0
  9 10  1  0  0  0  0
 10 11  1  0  0  0  0
 11  6  1  0  0  0  0
  1 12  2  0  0  0  0
 12 13  1  0  0  0  0
 13 14  2  0  0  0  0
 14 15  1  0  0  0  0
 15 16  2  0  0  0  0
 16  1  1  0  0  0  0
 14 17  1  0  0  0  0
M  END
> <Molecule Name>
128

> <CDD Number>
CDD-15988

> <Human_sEH_IC50_uM>
11.1

> <Mouse_sEH_IC50_uM>
0.79

$$$$

SketchEl molfile

 20 21  0  0  0  0  0  0  0  0999 V2000
    7.2746    0.7000    0.0000 C   0  0  0  0  0  0  0  0  0  0  0  0
    6.0622    0.0000    0.0000 N   0  0  0  0  0  0  0  0  0  0  0  0
    4.8497    0.7000    0.0000 C   0  0  0  0  0  0  0  0  0  0  0  0
    3.6373    0.0000    0.0000 N   0  0  0  0  0  0  0  0  0  0  0  0
    4.8497    2.1000    0.0000 O   0  0  0  0  0  0  0  0  0  0  0  0
    2.4249    0.7000    0.0000 C   0  0  0  0  0  0  0  0  0  0  0  0
    2.4249    2.1000    0.0000 C   0  0  0  0  0  0  0  0  0  0  0  0
    1.2124    2.8000    0.0000 C   0  0  0  0  0  0  0  0  0  0  0  0
    0.0000    2.1000    0.0000 C   0  0  0  0  0  0  0  0  0  0  0  0
    0.0000    0.7000    0.0000 C   0  0  0  0  0  0  0  0  0  0  0  0
    1.2124    0.0000    0.0000 C   0  0  0  0  0  0  0  0  0  0  0  0
    8.4870    0.0000    0.0000 C   0  0  0  0  0  0  0  0  0  0  0  0
    9.6995    0.7000    0.0000 C   0  0  0  0  0  0  0  0  0  0  0  0
    9.6995    2.1000    0.0000 C   0  0  0  0  0  0  0  0  0  0  0  0
    8.4870    2.8000    0.0000 C   0  0  0  0  0  0  0  0  0  0  0  0
    7.2746    2.1000    0.0000 C   0  0  0  0  0  0  0  0  0  0  0  0
   10.9119    2.8000    0.0000 S   0  0  0  0  0  0  0  0  0  0  0  0
   10.5496    4.1523    0.0000 O   0  0  0  0  0  0  0  0  0  0  0  0
   11.2743    1.4477    0.0000 O   0  0  0  0  0  0  0  0  0  0  0  0
   12.3119    2.8000    0.0000 O   0  0  0  0  0  0  0  0  0  0  0  0
  1  2  1  0  0  0  0
  2  3  1  0  0  0  0
  3  4  1  0  0  0  0
  3  5  2  0  0  0  0
  4  6  1  0  0  0  0
  6  7  1  0  0  0  0
  7  8  1  0  0  0  0
  8  9  1  0  0  0  0
  9 10  1  0  0  0  0
 10 11  1  0  0  0  0
 11  6  1  0  0  0  0
  1 12  2  0  0  0  0
 12 13  1  0  0  0  0
 13 14  2  0  0  0  0
 14 15  1  0  0  0  0
 15 16  2  0  0  0  0
 16  1  1  0  0  0  0
 14 17  1  0  0  0  0
 17 18  2  0  0  0  0
 17 19  2  0  0  0  0
 17 20  1  0  0  0  0
M  END
> <Molecule Name>
127

> <CDD Number>
CDD-15990

> <Human_sEH_IC50_uM>
97.0

> <Mouse_sEH_IC50_uM>
44.0

$$$$

SketchEl molfile

 19 20  0  0  0  0  0  0  0  0999 V2000
    7.2746    0.7000    0.0000 C   0  0  0  0  0  0  0  0  0  0  0  0
    6.0622    0.0000    0.0000 N   0  0  0  0  0  0  0  0  0  0  0  0
    4.8497    0.7000    0.0000 C   0  0  0  0  0  0  0  0  0  0  0  0
    3.6373    0.0000    0.0000 N   0  0  0  0  0  0  0  0  0  0  0  0
    4.8497    2.1000    0.0000 O   0  0  0  0  0  0  0  0  0  0  0  0
    2.4249    0.7000    0.0000 C   0  0  0  0  0  0  0  0  0  0  0  0
    2.4249    2.1000    0.0000 C   0  0  0  0  0  0  0  0  0  0  0  0
    1.2124    2.8000    0.0000 C   0  0  0  0  0  0  0  0  0  0  0  0
    0.0000    2.1000    0.0000 C   0  0  0  0  0  0  0  0  0  0  0  0
    0.0000    0.7000    0.0000 C   0  0  0  0  0  0  0  0  0  0  0  0
    1.2124    0.0000    0.0000 C   0  0  0  0  0  0  0  0  0  0  0  0
    8.4870    0.0000    0.0000 C   0  0  0  0  0  0  0  0  0  0  0  0
    9.6995    0.7000    0.0000 C   0  0  0  0  0  0  0  0  0  0  0  0
    9.6995    2.1000    0.0000 C   0  0  0  0  0  0  0  0  0  0  0  0
    8.4870    2.8000    0.0000 C   0  0  0  0  0  0  0  0  0  0  0  0
    7.2746    2.1000    0.0000 C   0  0  0  0  0  0  0  0  0  0  0  0
   10.9119    2.8000    0.0000 C   0  0  0  0  0  0  0  0  0  0  0  0
   12.1244    2.1000    0.0000 C   0  0  0  0  0  0  0  0  0  0  0  0
   10.9119    4.2000    0.0000 O   0  0  0  0  0  0  0  0  0  0  0  0
  1  2  1  0  0  0  0
  2  3  1  0  0  0  0
  3  4  1  0  0  0  0
  3  5  2  0  0  0  0
  4  6  1  0  0  0  0
  6  7  1  0  0  0  0
  7  8  1  0  0  0  0
  8  9  1  0  0  0  0
  9 10  1  0  0  0  0
 10 11  1  0  0  0  0
 11  6  1  0  0  0  0
  1 12  2  0  0  0  0
 12 13  1  0  0  0  0
 13 14  2  0  0  0  0
 14 15  1  0  0  0  0
 15 16  2  0  0  0  0
 16  1  1  0  0  0  0
 14 17  1  0  0  0  0
 17 18  1  0  0  0  0
 17 19  2  0  0  0  0
M  END
> <Molecule Name>
126

> <CDD Number>
CDD-15872

> <Human_sEH_IC50_uM>
0.27

> <Mouse_sEH_IC50_uM>
0.06

$$$$

SketchEl molfile

 17 16  0  0  0  0  0  0  0  0999 V2000
    6.0622    0.7993    0.0000 C   0  0  0  0  0  0  0  0  0  0  0  0
    7.2746    0.0993    0.0000 C   0  0  0  0  0  0  0  0  0  0  0  0
    8.4870    0.7993    0.0000 C   0  0  0  0  0  0  0  0  0  0  0  0
    9.6995    0.0993    0.0000 N   0  0  0  0  0  0  0  0  0  0  0  0
   10.9119    0.7993    0.0000 C   0  0  0  0  0  0  0  0  0  0  0  0
   12.1244    0.0993    0.0000 N   0  0  0  0  0  0  0  0  0  0  0  0
   10.9119    2.1993    0.0000 O   0  0  0  0  0  0  0  0  0  0  0  0
    4.8497    0.0993    0.0000 C   0  0  0  0  0  0  0  0  0  0  0  0
    3.6373    0.7993    0.0000 C   0  0  0  0  0  0  0  0  0  0  0  0
    2.4249    0.0993    0.0000 C   0  0  0  0  0  0  0  0  0  0  0  0
    1.2124    0.7993    0.0000 C   0  0  0  0  0  0  0  0  0  0  0  0
    0.0000    0.0993    0.0000 C   0  0  0  0  0  0  0  0  0  0  0  0
   13.1143    0.7000    0.0000 C   0  0  0  0  0  0  0  0  0  0  0  0
   14.3267    0.0000    0.0000 C   0  0  0  0  0  0  0  0  0  0  0  0
   15.5392    0.7000    0.0000 C   0  0  0  0  0  0  0  0  0  0  0  0
   16.7516    0.0000    0.0000 C   0  0  0  0  0  0  0  0  0  0  0  0
   17.9640    0.7000    0.0000 C   0  0  0  0  0  0  0  0  0  0  0  0
  1  2  1  0  0  0  0
  2  3  1  0  0  0  0
  3  4  1  0  0  0  0
  4  5  1  0  0  0  0
  5  6  1  0  0  0  0
  5  7  2  0  0  0  0
  1  8  1  0  0  0  0
  8  9  1  0  0  0  0
  9 10  1  0  0  0  0
 10 11  1  0  0  0  0
 11 12  1  0  0  0  0
  6 13  1  0  0  0  0
 13 14  1  0  0  0  0
 14 15  1  0  0  0  0
 15 16  1  0  0  0  0
 16 17  1  0  0  0  0
M  END
> <Molecule Name>
125

> <CDD Number>
CDD-15819

> <Human_sEH_IC50_uM>
0.72

> <Mouse_sEH_IC50_uM>
0.09

$$$$

SketchEl molfile

 20 20  0  0  0  0  0  0  0  0999 V2000
    0.0000    2.1993    0.0000 C   0  0  0  0  0  0  0  0  0  0  0  0
    1.2124    1.4993    0.0000 C   0  0  0  0  0  0  0  0  0  0  0  0
    2.4249    2.1993    0.0000 C   0  0  0  0  0  0  0  0  0  0  0  0
    2.4249    3.5993    0.0000 C   0  0  0  0  0  0  0  0  0  0  0  0
    1.2124    4.2993    0.0000 C   0  0  0  0  0  0  0  0  0  0  0  0
    0.0000    3.5993    0.0000 C   0  0  0  0  0  0  0  0  0  0  0  0
    3.6373    1.4993    0.0000 N   0  0  0  0  0  0  0  0  0  0  0  0
    4.6273    2.1000    0.0000 C   0  0  0  0  0  0  0  0  0  0  0  0
    5.8397    1.4000    0.0000 N   0  0  0  0  0  0  0  0  0  0  0  0
    4.6273    3.5000    0.0000 O   0  0  0  0  0  0  0  0  0  0  0  0
    6.8296    2.0007    0.0000 C   0  0  0  0  0  0  0  0  0  0  0  0
    8.0421    1.3007    0.0000 C   0  0  0  0  0  0  0  0  0  0  0  0
    9.2545    2.0007    0.0000 N   0  0  0  0  0  0  0  0  0  0  0  0
   10.2445    1.4000    0.0000 C   0  0  0  0  0  0  0  0  0  0  0  0
   11.4569    2.1000    0.0000 O   0  0  0  0  0  0  0  0  0  0  0  0
   10.2445    0.0000    0.0000 O   0  0  0  0  0  0  0  0  0  0  0  0
   12.6693    1.4000    0.0000 C   0  0  0  0  0  0  0  0  0  0  0  0
   13.6593    2.3899    0.0000 C   0  0  0  0  0  0  0  0  0  0  0  0
   13.8818    0.7000    0.0000 C   0  0  0  0  0  0  0  0  0  0  0  0
   12.6693    0.0000    0.0000 C   0  0  0  0  0  0  0  0  0  0  0  0
  1  2  1  0  0  0  0
  2  3  1  0  0  0  0
  3  4  1  0  0  0  0
  4  5  1  0  0  0  0
  5  6  1  0  0  0  0
  6  1  1  0  0  0  0
  3  7  1  0  0  0  0
  7  8  1  0  0  0  0
  8  9  1  0  0  0  0
  8 10  2  0  0  0  0
  9 11  1  0  0  0  0
 11 12  1  0  0  0  0
 12 13  1  0  0  0  0
 13 14  1  0  0  0  0
 14 15  1  0  0  0  0
 14 16  2  0  0  0  0
 15 17  1  0  0  0  0
 17 18  1  0  0  0  0
 17 19  1  0  0  0  0
 17 20  1  0  0  0  0
M  END
> <Molecule Name>
124

> <CDD Number>
CDD-15915

> <Human_sEH_IC50_uM>
0.14

> <Mouse_sEH_IC50_uM>
0.05

$$$$

SketchEl molfile

 23 22  0  0  0  0  0  0  0  0999 V2000
    0.7000    2.4249    0.0000 C   0  0  0  0  0  0  0  0  0  0  0  0
    0.0000    1.2124    0.0000 C   0  0  0  0  0  0  0  0  0  0  0  0
    0.7000    0.0000    0.0000 C   0  0  0  0  0  0  0  0  0  0  0  0
    2.1000    0.0000    0.0000 C   0  0  0  0  0  0  0  0  0  0  0  0
    2.1000    2.4249    0.0000 C   0  0  0  0  0  0  0  0  0  0  0  0
    3.3124    1.7249    0.0000 C   0  0  0  0  0  0  0  0  0  0  0  0
    3.3124    0.7000    0.0000 C   0  0  0  0  0  0  0  0  0  0  0  0
    4.5249    2.4249    0.0000 C   0  0  0  0  0  0  0  0  0  0  0  0
    5.7373    1.7249    0.0000 C   0  0  0  0  0  0  0  0  0  0  0  0
    6.9497    2.4249    0.0000 C   0  0  0  0  0  0  0  0  0  0  0  0
    8.1622    1.7249    0.0000 C   0  0  0  0  0  0  0  0  0  0  0  0
    9.3746    2.4249    0.0000 C   0  0  0  0  0  0  0  0  0  0  0  0
   10.5870    1.7249    0.0000 C   0  0  0  0  0  0  0  0  0  0  0  0
   11.7995    2.4249    0.0000 C   0  0  0  0  0  0  0  0  0  0  0  0
   13.0119    1.7249    0.0000 N   0  0  0  0  0  0  0  0  0  0  0  0
   11.7995    3.8249    0.0000 O   0  0  0  0  0  0  0  0  0  0  0  0
   14.0019    2.3255    0.0000 C   0  0  0  0  0  0  0  0  0  0  0  0
   15.2293    1.6521    0.0000 C   0  0  0  0  0  0  0  0  0  0  0  0
   16.4417    2.3521    0.0000 O   0  0  0  0  0  0  0  0  0  0  0  0
    4.5249    0.0000    0.0000 C   0  0  0  0  0  0  0  0  0  0  0  0
    5.7373    0.7000    0.0000 C   0  0  0  0  0  0  0  0  0  0  0  0
    6.9497    0.0000    0.0000 C   0  0  0  0  0  0  0  0  0  0  0  0
    8.1622    0.7000    0.0000 C   0  0  0  0  0  0  0  0  0  0  0  0
  1  2  1  0  0  0  0
  2  3  1  0  0  0  0
  3  4  2  0  0  0  0
  1  5  2  0  0  0  0
  5  6  1  0  0  0  0
  4  7  1  0  0  0  0
  6  8  1  0  0  0  0
  8  9  1  0  0  0  0
  9 10  1  0  0  0  0
 10 11  1  0  0  0  0
 11 12  1  0  0  0  0
 12 13  1  0  0  0  0
 13 14  1  0  0  0  0
 14 15  1  0  0  0  0
 14 16  2  0  0  0  0
 15 17  1  0  0  0  0
 17 18  1  0  0  0  0
 18 19  1  0  0  0  0
  7 20  1  0  0  0  0
 20 21  1  0  0  0  0
 21 22  1  0  0  0  0
 22 23  1  0  0  0  0
M  END
> <Molecule Name>
123

> <CDD Number>
CDD-16145

> <Human_sEH_IC50_uM>
100.0

> <Mouse_sEH_IC50_uM>
100.0

$$$$

SketchEl molfile

 25 24  0  0  0  0  0  0  0  0999 V2000
    0.7000    2.4249    0.0000 C   0  0  0  0  0  0  0  0  0  0  0  0
    0.0000    1.2124    0.0000 C   0  0  0  0  0  0  0  0  0  0  0  0
    0.7000    0.0000    0.0000 C   0  0  0  0  0  0  0  0  0  0  0  0
    2.1000    0.0000    0.0000 C   0  0  0  0  0  0  0  0  0  0  0  0
    2.1000    2.4249    0.0000 C   0  0  0  0  0  0  0  0  0  0  0  0
    3.3124    1.7249    0.0000 C   0  0  0  0  0  0  0  0  0  0  0  0
    3.3124    0.7000    0.0000 C   0  0  0  0  0  0  0  0  0  0  0  0
    4.5249    0.0000    0.0000 C   0  0  0  0  0  0  0  0  0  0  0  0
    4.5249    2.4249    0.0000 C   0  0  0  0  0  0  0  0  0  0  0  0
    5.9249    2.4249    0.0000 C   0  0  0  0  0  0  0  0  0  0  0  0
    5.9249    0.0000    0.0000 C   0  0  0  0  0  0  0  0  0  0  0  0
    7.1373    1.7249    0.0000 C   0  0  0  0  0  0  0  0  0  0  0  0
    7.1373    0.7000    0.0000 C   0  0  0  0  0  0  0  0  0  0  0  0
    8.3497    0.0000    0.0000 C   0  0  0  0  0  0  0  0  0  0  0  0
    8.3497    2.4249    0.0000 C   0  0  0  0  0  0  0  0  0  0  0  0
    9.5622    1.7249    0.0000 C   0  0  0  0  0  0  0  0  0  0  0  0
   10.7746    2.4249    0.0000 C   0  0  0  0  0  0  0  0  0  0  0  0
   11.9870    1.7249    0.0000 N   0  0  0  0  0  0  0  0  0  0  0  0
   10.7746    3.8249    0.0000 O   0  0  0  0  0  0  0  0  0  0  0  0
    9.5622    0.7000    0.0000 C   0  0  0  0  0  0  0  0  0  0  0  0
   10.7746    0.0000    0.0000 C   0  0  0  0  0  0  0  0  0  0  0  0
   11.9870    0.7000    0.0000 C   0  0  0  0  0  0  0  0  0  0  0  0
   12.9770    2.3255    0.0000 C   0  0  0  0  0  0  0  0  0  0  0  0
   14.2044    1.6521    0.0000 C   0  0  0  0  0  0  0  0  0  0  0  0
   15.4013    2.3784    0.0000 O   0  0  0  0  0  0  0  0  0  0  0  0
  1  2  1  0  0  0  0
  2  3  1  0  0  0  0
  3  4  2  0  0  0  0
  1  5  2  0  0  0  0
  5  6  1  0  0  0  0
  4  7  1  0  0  0  0
  7  8  1  0  0  0  0
  6  9  1  0  0  0  0
  9 10  2  0  0  0  0
  8 11  2  0  0  0  0
 10 12  1  0  0  0  0
 11 13  1  0  0  0  0
 13 14  1  0  0  0  0
 12 15  1  0  0  0  0
 15 16  1  0  0  0  0
 16 17  1  0  0  0  0
 17 18  1  0  0  0  0
 17 19  2  0  0  0  0
 14 20  1  0  0  0  0
 20 21  1  0  0  0  0
 21 22  1  0  0  0  0
 18 23  1  0  0  0  0
 23 24  1  0  0  0  0
 24 25  1  0  0  0  0
M  END
> <Molecule Name>
122

> <CDD Number>
CDD-16144

> <Human_sEH_IC50_uM>
100.0

> <Mouse_sEH_IC50_uM>
100.0

$$$$

SketchEl molfile

 18 18  0  0  0  0  0  0  0  0999 V2000
    2.4249    2.8000    0.0000 C   0  0  0  0  0  0  0  0  0  0  0  0
    2.4249    1.4000    0.0000 C   0  0  0  0  0  0  0  0  0  0  0  0
    3.6373    0.7000    0.0000 C   0  0  0  0  0  0  0  0  0  0  0  0
    4.8497    1.4000    0.0000 C   0  0  0  0  0  0  0  0  0  0  0  0
    4.8497    2.8000    0.0000 C   0  0  0  0  0  0  0  0  0  0  0  0
    3.6373    3.5000    0.0000 C   0  0  0  0  0  0  0  0  0  0  0  0
    6.0622    0.7000    0.0000 O   0  0  0  0  0  0  0  0  0  0  0  0
    7.2746    1.4000    0.0000 C   0  0  0  0  0  0  0  0  0  0  0  0
    8.4870    0.7000    0.0000 O   0  0  0  0  0  0  0  0  0  0  0  0
    7.2746    2.8000    0.0000 O   0  0  0  0  0  0  0  0  0  0  0  0
    9.6995    1.4000    0.0000 C   0  0  0  0  0  0  0  0  0  0  0  0
   10.9119    0.7000    0.0000 C   0  0  0  0  0  0  0  0  0  0  0  0
   12.3119    0.7000    0.0000 C   0  0  0  0  0  0  0  0  0  0  0  0
   13.5244    1.4000    0.0000 C   0  0  0  0  0  0  0  0  0  0  0  0
   13.5244    0.0000    0.0000 C   0  0  0  0  0  0  0  0  0  0  0  0
    1.2124    3.5000    0.0000 N   0  3  0  0  0  0  0  0  0  0  0  0
    1.2124    4.9000    0.0000 O   0  0  0  0  0  0  0  0  0  0  0  0
    0.0000    2.8000    0.0000 O   0  5  0  0  0  0  0  0  0  0  0  0
  1  2  2  0  0  0  0
  2  3  1  0  0  0  0
  3  4  2  0  0  0  0
  4  5  1  0  0  0  0
  5  6  2  0  0  0  0
  6  1  1  0  0  0  0
  4  7  1  0  0  0  0
  7  8  1  0  0  0  0
  8  9  1  0  0  0  0
  8 10  2  0  0  0  0
  9 11  1  0  0  0  0
 11 12  1  0  0  0  0
 12 13  2  0  0  0  0
 13 14  1  0  0  0  0
 13 15  1  0  0  0  0
  1 16  1  0  0  0  0
 16 17  2  0  0  0  0
 16 18  1  0  0  0  0
M  CHG  2  16   1  18  -1
M  END
> <Molecule Name>
121

> <CDD Number>
CDD-15638

> <Human_sEH_IC50_uM>
500.0

> <Mouse_sEH_IC50_uM>
500.0

$$$$

SketchEl molfile

 13 14  0  0  0  0  0  0  0  0999 V2000
    0.0000    2.1728    0.0000 C   0  0  0  0  0  0  0  0  0  0  0  0
    0.0000    0.7728    0.0000 C   0  0  0  0  0  0  0  0  0  0  0  0
    1.2124    0.0728    0.0000 C   0  0  0  0  0  0  0  0  0  0  0  0
    2.4249    0.7728    0.0000 C   0  0  0  0  0  0  0  0  0  0  0  0
    2.4249    2.1728    0.0000 C   0  0  0  0  0  0  0  0  0  0  0  0
    1.2124    2.8728    0.0000 C   0  0  0  0  0  0  0  0  0  0  0  0
    3.6373    0.0728    0.0000 N   0  0  0  0  0  0  0  0  0  0  0  0
    4.6273    0.6734    0.0000 C   0  0  0  0  0  0  0  0  0  0  0  0
    5.8547    0.0000    0.0000 N   0  0  0  0  0  0  0  0  0  0  0  0
    4.6273    2.0734    0.0000 O   0  0  0  0  0  0  0  0  0  0  0  0
    6.8446    0.6007    0.0000 C   0  0  0  0  0  0  0  0  0  0  0  0
    7.2069    1.9530    0.0000 C   0  0  0  0  0  0  0  0  0  0  0  0
    8.1969    0.9630    0.0000 C   0  0  0  0  0  0  0  0  0  0  0  0
  1  2  1  0  0  0  0
  2  3  1  0  0  0  0
  3  4  1  0  0  0  0
  4  5  1  0  0  0  0
  5  6  1  0  0  0  0
  6  1  1  0  0  0  0
  4  7  1  0  0  0  0
  7  8  1  0  0  0  0
  8  9  1  0  0  0  0
  8 10  2  0  0  0  0
  9 11  1  0  0  0  0
 11 12  1  0  0  0  0
 11 13  1  0  0  0  0
 12 13  1  0  0  0  0
M  END
> <Molecule Name>
120

> <CDD Number>
CDD-15936

> <Human_sEH_IC50_uM>
138.0

> <Mouse_sEH_IC50_uM>
24.0

$$$$

SketchEl molfile

 18 19  0  0  0  0  0  0  0  0999 V2000
    7.2746    0.7000    0.0000 C   0  0  0  0  0  0  0  0  0  0  0  0
    6.0622    0.0000    0.0000 N   0  0  0  0  0  0  0  0  0  0  0  0
    4.8497    0.7000    0.0000 C   0  0  0  0  0  0  0  0  0  0  0  0
    3.6373    0.0000    0.0000 N   0  0  0  0  0  0  0  0  0  0  0  0
    4.8497    2.1000    0.0000 O   0  0  0  0  0  0  0  0  0  0  0  0
    2.4249    0.7000    0.0000 C   0  0  0  0  0  0  0  0  0  0  0  0
    2.4249    2.1000    0.0000 C   0  0  0  0  0  0  0  0  0  0  0  0
    1.2124    2.8000    0.0000 C   0  0  0  0  0  0  0  0  0  0  0  0
    0.0000    2.1000    0.0000 C   0  0  0  0  0  0  0  0  0  0  0  0
    0.0000    0.7000    0.0000 C   0  0  0  0  0  0  0  0  0  0  0  0
    1.2124    0.0000    0.0000 C   0  0  0  0  0  0  0  0  0  0  0  0
    8.4870    0.0000    0.0000 C   0  0  0  0  0  0  0  0  0  0  0  0
    9.6995    0.7000    0.0000 C   0  0  0  0  0  0  0  0  0  0  0  0
    9.6995    2.1000    0.0000 C   0  0  0  0  0  0  0  0  0  0  0  0
    8.4870    2.8000    0.0000 C   0  0  0  0  0  0  0  0  0  0  0  0
    7.2746    2.1000    0.0000 C   0  0  0  0  0  0  0  0  0  0  0  0
   10.9119    2.8000    0.0000 C   0  0  0  0  0  0  0  0  0  0  0  0
   12.3119    2.8000    0.0000 N   0  0  0  0  0  0  0  0  0  0  0  0
  1  2  1  0  0  0  0
  2  3  1  0  0  0  0
  3  4  1  0  0  0  0
  3  5  2  0  0  0  0
  4  6  1  0  0  0  0
  6  7  1  0  0  0  0
  7  8  1  0  0  0  0
  8  9  1  0  0  0  0
  9 10  1  0  0  0  0
 10 11  1  0  0  0  0
 11  6  1  0  0  0  0
  1 12  2  0  0  0  0
 12 13  1  0  0  0  0
 13 14  2  0  0  0  0
 14 15  1  0  0  0  0
 15 16  2  0  0  0  0
 16  1  1  0  0  0  0
 14 17  1  0  0  0  0
 17 18  3  0  0  0  0
M  END
> <Molecule Name>
118

> <CDD Number>
CDD-15871

> <Human_sEH_IC50_uM>
0.1

> <Mouse_sEH_IC50_uM>
0.06

$$$$

SketchEl molfile

 20 21  0  0  0  0  0  0  0  0999 V2000
    0.0000    0.7001    0.0000 C   0  0  0  0  0  0  0  0  0  0  0  0
    1.2124    0.0001    0.0000 C   0  0  0  0  0  0  0  0  0  0  0  0
    2.4249    0.7001    0.0000 C   0  0  0  0  0  0  0  0  0  0  0  0
    2.4249    2.1001    0.0000 C   0  0  0  0  0  0  0  0  0  0  0  0
    1.2124    2.8001    0.0000 C   0  0  0  0  0  0  0  0  0  0  0  0
    0.0000    2.1001    0.0000 C   0  0  0  0  0  0  0  0  0  0  0  0
    3.6373    0.0001    0.0000 N   0  0  0  0  0  0  0  0  0  0  0  0
    4.8497    0.7001    0.0000 C   0  0  0  0  0  0  0  0  0  0  0  0
    6.0622    0.0001    0.0000 O   0  0  0  0  0  0  0  0  0  0  0  0
    4.8497    2.1001    0.0000 O   0  0  0  0  0  0  0  0  0  0  0  0
    7.2746    0.7001    0.0000 C   0  0  0  0  0  0  0  0  0  0  0  0
    8.4870    0.0000    0.0000 C   0  0  0  0  0  0  0  0  0  0  0  0
    9.6994    0.7000    0.0000 C   0  0  0  0  0  0  0  0  0  0  0  0
   10.9118    0.0000    0.0000 C   0  0  0  0  0  0  0  0  0  0  0  0
   12.1243    0.7000    0.0000 C   0  0  0  0  0  0  0  0  0  0  0  0
   13.3367    0.0000    0.0000 C   0  0  0  0  0  0  0  0  0  0  0  0
   14.5492    0.7000    0.0000 C   0  0  0  0  0  0  0  0  0  0  0  0
   14.5492    2.1000    0.0000 C   0  0  0  0  0  0  0  0  0  0  0  0
   13.3367    2.8000    0.0000 C   0  0  0  0  0  0  0  0  0  0  0  0
   12.1243    2.1000    0.0000 C   0  0  0  0  0  0  0  0  0  0  0  0
  1  2  1  0  0  0  0
  2  3  1  0  0  0  0
  3  4  1  0  0  0  0
  4  5  1  0  0  0  0
  5  6  1  0  0  0  0
  6  1  1  0  0  0  0
  3  7  1  0  0  0  0
  7  8  1  0  0  0  0
  8  9  1  0  0  0  0
  8 10  2  0  0  0  0
  9 11  1  0  0  0  0
 11 12  1  0  0  0  0
 12 13  1  0  0  0  0
 13 14  1  0  0  0  0
 14 15  1  0  0  0  0
 15 16  2  0  0  0  0
 16 17  1  0  0  0  0
 17 18  2  0  0  0  0
 18 19  1  0  0  0  0
 19 20  2  0  0  0  0
 20 15  1  0  0  0  0
M  END
> <Molecule Name>
117

> <CDD Number>
CDD-16092

> <Human_sEH_IC50_uM>
2.5

> <Mouse_sEH_IC50_uM>
2.8

$$$$

SketchEl molfile

 14 14  0  0  0  0  0  0  0  0999 V2000
    0.0000    0.8987    0.0000 C   0  0  0  0  0  0  0  0  0  0  0  0
    1.2124    0.1987    0.0000 C   0  0  0  0  0  0  0  0  0  0  0  0
    2.4249    0.8987    0.0000 C   0  0  0  0  0  0  0  0  0  0  0  0
    2.4249    2.2987    0.0000 C   0  0  0  0  0  0  0  0  0  0  0  0
    1.2124    2.9987    0.0000 C   0  0  0  0  0  0  0  0  0  0  0  0
    0.0000    2.2987    0.0000 C   0  0  0  0  0  0  0  0  0  0  0  0
    3.6373    0.1987    0.0000 N   0  0  0  0  0  0  0  0  0  0  0  0
    4.6273    0.7993    0.0000 C   0  0  0  0  0  0  0  0  0  0  0  0
    5.8397    0.0993    0.0000 N   0  0  0  0  0  0  0  0  0  0  0  0
    4.6273    2.1993    0.0000 O   0  0  0  0  0  0  0  0  0  0  0  0
    6.8296    0.7000    0.0000 C   0  0  0  0  0  0  0  0  0  0  0  0
    8.0421    0.0000    0.0000 C   0  0  0  0  0  0  0  0  0  0  0  0
    9.2545    0.7000    0.0000 C   0  0  0  0  0  0  0  0  0  0  0  0
   10.4669    0.0000    0.0000 C   0  0  0  0  0  0  0  0  0  0  0  0
  1  2  1  0  0  0  0
  2  3  1  0  0  0  0
  3  4  1  0  0  0  0
  4  5  1  0  0  0  0
  5  6  1  0  0  0  0
  6  1  1  0  0  0  0
  3  7  1  0  0  0  0
  7  8  1  0  0  0  0
  8  9  1  0  0  0  0
  8 10  2  0  0  0  0
  9 11  1  0  0  0  0
 11 12  1  0  0  0  0
 12 13  1  0  0  0  0
 13 14  1  0  0  0  0
M  END
> <Molecule Name>
116

> <CDD Number>
CDD-15903

> <Human_sEH_IC50_uM>
5.07

> <Mouse_sEH_IC50_uM>
1.28

$$$$

SketchEl molfile

 17 17  0  0  0  0  0  0  0  0999 V2000
    0.0000    0.8987    0.0000 C   0  0  0  0  0  0  0  0  0  0  0  0
    1.2124    0.1987    0.0000 C   0  0  0  0  0  0  0  0  0  0  0  0
    2.4249    0.8987    0.0000 C   0  0  0  0  0  0  0  0  0  0  0  0
    2.4249    2.2987    0.0000 C   0  0  0  0  0  0  0  0  0  0  0  0
    1.2124    2.9987    0.0000 C   0  0  0  0  0  0  0  0  0  0  0  0
    0.0000    2.2987    0.0000 C   0  0  0  0  0  0  0  0  0  0  0  0
    3.6373    0.1987    0.0000 N   0  0  0  0  0  0  0  0  0  0  0  0
    4.6273    0.7993    0.0000 C   0  0  0  0  0  0  0  0  0  0  0  0
    5.8397    0.0993    0.0000 N   0  0  0  0  0  0  0  0  0  0  0  0
    4.6273    2.1993    0.0000 O   0  0  0  0  0  0  0  0  0  0  0  0
    6.8296    0.7000    0.0000 C   0  0  0  0  0  0  0  0  0  0  0  0
    8.0421    0.0000    0.0000 C   0  0  0  0  0  0  0  0  0  0  0  0
    9.2545    0.7000    0.0000 C   0  0  0  0  0  0  0  0  0  0  0  0
   10.4669    0.0000    0.0000 C   0  0  0  0  0  0  0  0  0  0  0  0
   11.6794    0.7000    0.0000 C   0  0  0  0  0  0  0  0  0  0  0  0
   12.8918    0.0000    0.0000 C   0  0  0  0  0  0  0  0  0  0  0  0
   14.2918    0.0000    0.0000 N   0  0  0  0  0  0  0  0  0  0  0  0
  1  2  1  0  0  0  0
  2  3  1  0  0  0  0
  3  4  1  0  0  0  0
  4  5  1  0  0  0  0
  5  6  1  0  0  0  0
  6  1  1  0  0  0  0
  3  7  1  0  0  0  0
  7  8  1  0  0  0  0
  8  9  1  0  0  0  0
  8 10  2  0  0  0  0
  9 11  1  0  0  0  0
 11 12  1  0  0  0  0
 12 13  1  0  0  0  0
 13 14  1  0  0  0  0
 14 15  1  0  0  0  0
 15 16  1  0  0  0  0
 16 17  3  0  0  0  0
M  END
> <Molecule Name>
115

> <CDD Number>
CDD-15921

> <Human_sEH_IC50_uM>
12.0

> <Mouse_sEH_IC50_uM>
2.8

$$$$

SketchEl molfile

 14 15  0  0  0  0  0  0  0  0999 V2000
    0.0000    0.7993    0.0000 C   0  0  0  0  0  0  0  0  0  0  0  0
    1.2124    0.0993    0.0000 C   0  0  0  0  0  0  0  0  0  0  0  0
    2.4249    0.7993    0.0000 C   0  0  0  0  0  0  0  0  0  0  0  0
    2.4249    2.1993    0.0000 C   0  0  0  0  0  0  0  0  0  0  0  0
    1.2124    2.8993    0.0000 C   0  0  0  0  0  0  0  0  0  0  0  0
    0.0000    2.1993    0.0000 C   0  0  0  0  0  0  0  0  0  0  0  0
    3.6373    0.0993    0.0000 N   0  0  0  0  0  0  0  0  0  0  0  0
    4.6273    0.7000    0.0000 C   0  0  0  0  0  0  0  0  0  0  0  0
    5.8397    0.0000    0.0000 N   0  0  0  0  0  0  0  0  0  0  0  0
    4.6273    2.1000    0.0000 O   0  0  0  0  0  0  0  0  0  0  0  0
    6.8296    0.6007    0.0000 C   0  0  0  0  0  0  0  0  0  0  0  0
    7.1920    1.9530    0.0000 C   0  0  0  0  0  0  0  0  0  0  0  0
    8.2296    0.6007    0.0000 C   0  0  0  0  0  0  0  0  0  0  0  0
    8.5920    1.9530    0.0000 C   0  0  0  0  0  0  0  0  0  0  0  0
  1  2  1  0  0  0  0
  2  3  1  0  0  0  0
  3  4  1  0  0  0  0
  4  5  1  0  0  0  0
  5  6  1  0  0  0  0
  6  1  1  0  0  0  0
  3  7  1  0  0  0  0
  7  8  1  0  0  0  0
  8  9  1  0  0  0  0
  8 10  2  0  0  0  0
  9 11  1  0  0  0  0
 11 12  1  0  0  0  0
 11 13  1  0  0  0  0
 13 14  1  0  0  0  0
 12 14  1  0  0  0  0
M  END
> <Molecule Name>
112

> <CDD Number>
CDD-15937

> <Human_sEH_IC50_uM>
6.4

> <Mouse_sEH_IC50_uM>
2.7

$$$$

SketchEl molfile

 15 14  0  0  0  0  0  0  0  0999 V2000
    3.6373    0.7728    0.0000 C   0  0  0  0  0  0  0  0  0  0  0  0
    4.8497    0.0728    0.0000 C   0  0  0  0  0  0  0  0  0  0  0  0
    6.0622    0.7728    0.0000 C   0  0  0  0  0  0  0  0  0  0  0  0
    7.2746    0.0728    0.0000 N   0  0  0  0  0  0  0  0  0  0  0  0
    8.4870    0.7728    0.0000 C   0  0  0  0  0  0  0  0  0  0  0  0
    9.6995    0.0728    0.0000 N   0  0  0  0  0  0  0  0  0  0  0  0
    8.4870    2.1728    0.0000 O   0  0  0  0  0  0  0  0  0  0  0  0
    2.4249    0.0728    0.0000 C   0  0  0  0  0  0  0  0  0  0  0  0
    1.2124    0.7728    0.0000 C   0  0  0  0  0  0  0  0  0  0  0  0
    0.0000    0.0728    0.0000 C   0  0  0  0  0  0  0  0  0  0  0  0
   10.6894    0.6734    0.0000 C   0  0  0  0  0  0  0  0  0  0  0  0
   11.9168    0.0000    0.0000 C   0  0  0  0  0  0  0  0  0  0  0  0
   13.1293    0.7000    0.0000 C   0  0  0  0  0  0  0  0  0  0  0  0
   14.3417    0.0000    0.0000 C   0  0  0  0  0  0  0  0  0  0  0  0
   15.5541    0.7000    0.0000 C   0  0  0  0  0  0  0  0  0  0  0  0
  1  2  1  0  0  0  0
  2  3  1  0  0  0  0
  3  4  1  0  0  0  0
  4  5  1  0  0  0  0
  5  6  1  0  0  0  0
  5  7  2  0  0  0  0
  1  8  1  0  0  0  0
  8  9  1  0  0  0  0
  9 10  1  0  0  0  0
  6 11  1  0  0  0  0
 11 12  1  0  0  0  0
 12 13  1  0  0  0  0
 13 14  1  0  0  0  0
 14 15  1  0  0  0  0
M  END
> <Molecule Name>
111

> <CDD Number>
CDD-15810

> <Human_sEH_IC50_uM>
3.1

> <Mouse_sEH_IC50_uM>
1.11

$$$$

SketchEl molfile

 15 15  0  0  0  0  0  0  0  0999 V2000
    0.0000    0.8987    0.0000 C   0  0  0  0  0  0  0  0  0  0  0  0
    1.2124    0.1987    0.0000 C   0  0  0  0  0  0  0  0  0  0  0  0
    2.4249    0.8987    0.0000 C   0  0  0  0  0  0  0  0  0  0  0  0
    2.4249    2.2987    0.0000 C   0  0  0  0  0  0  0  0  0  0  0  0
    1.2124    2.9987    0.0000 C   0  0  0  0  0  0  0  0  0  0  0  0
    0.0000    2.2987    0.0000 C   0  0  0  0  0  0  0  0  0  0  0  0
    3.6373    0.1987    0.0000 N   0  0  0  0  0  0  0  0  0  0  0  0
    4.6273    0.7993    0.0000 C   0  0  0  0  0  0  0  0  0  0  0  0
    5.8397    0.0993    0.0000 N   0  0  0  0  0  0  0  0  0  0  0  0
    4.6273    2.1993    0.0000 O   0  0  0  0  0  0  0  0  0  0  0  0
    6.8296    0.7000    0.0000 C   0  0  0  0  0  0  0  0  0  0  0  0
    8.0421    0.0000    0.0000 C   0  0  0  0  0  0  0  0  0  0  0  0
    9.2545    0.7000    0.0000 C   0  0  0  0  0  0  0  0  0  0  0  0
   10.4669    0.0000    0.0000 O   0  0  0  0  0  0  0  0  0  0  0  0
    9.2545    2.1000    0.0000 O   0  0  0  0  0  0  0  0  0  0  0  0
  1  2  1  0  0  0  0
  2  3  1  0  0  0  0
  3  4  1  0  0  0  0
  4  5  1  0  0  0  0
  5  6  1  0  0  0  0
  6  1  1  0  0  0  0
  3  7  1  0  0  0  0
  7  8  1  0  0  0  0
  8  9  1  0  0  0  0
  8 10  2  0  0  0  0
  9 11  1  0  0  0  0
 11 12  1  0  0  0  0
 12 13  1  0  0  0  0
 13 14  1  0  0  0  0
 13 15  2  0  0  0  0
M  END
> <Molecule Name>
109

> <CDD Number>
CDD-15913

> <Human_sEH_IC50_uM>
358.0

> <Mouse_sEH_IC50_uM>
122.0

$$$$

SketchEl molfile

 17 18  0  0  0  0  0  0  0  0999 V2000
    7.2746    0.7000    0.0000 C   0  0  0  0  0  0  0  0  0  0  0  0
    6.0622    0.0000    0.0000 N   0  0  0  0  0  0  0  0  0  0  0  0
    4.8497    0.7000    0.0000 C   0  0  0  0  0  0  0  0  0  0  0  0
    3.6373    0.0000    0.0000 N   0  0  0  0  0  0  0  0  0  0  0  0
    4.8497    2.1000    0.0000 O   0  0  0  0  0  0  0  0  0  0  0  0
    2.4249    0.7000    0.0000 C   0  0  0  0  0  0  0  0  0  0  0  0
    8.4870    0.0000    0.0000 C   0  0  0  0  0  0  0  0  0  0  0  0
    9.6995    0.7000    0.0000 C   0  0  0  0  0  0  0  0  0  0  0  0
    9.6995    2.1000    0.0000 C   0  0  0  0  0  0  0  0  0  0  0  0
    8.4870    2.8000    0.0000 C   0  0  0  0  0  0  0  0  0  0  0  0
    7.2746    2.1000    0.0000 C   0  0  0  0  0  0  0  0  0  0  0  0
    2.4249    2.1000    0.0000 C   0  0  0  0  0  0  0  0  0  0  0  0
    1.2124    2.8000    0.0000 C   0  0  0  0  0  0  0  0  0  0  0  0
    0.0000    2.1000    0.0000 C   0  0  0  0  0  0  0  0  0  0  0  0
    0.0000    0.7000    0.0000 C   0  0  0  0  0  0  0  0  0  0  0  0
    1.2124    0.0000    0.0000 C   0  0  0  0  0  0  0  0  0  0  0  0
   10.9119    2.8000    0.0000 C   0  0  0  0  0  0  0  0  0  0  0  0
  1  2  1  0  0  0  0
  2  3  1  0  0  0  0
  3  4  1  0  0  0  0
  3  5  2  0  0  0  0
  4  6  1  0  0  0  0
  1  7  2  0  0  0  0
  7  8  1  0  0  0  0
  8  9  2  0  0  0  0
  9 10  1  0  0  0  0
 10 11  2  0  0  0  0
 11  1  1  0  0  0  0
  6 12  1  0  0  0  0
 12 13  1  0  0  0  0
 13 14  1  0  0  0  0
 14 15  1  0  0  0  0
 15 16  1  0  0  0  0
 16  6  1  0  0  0  0
  9 17  1  0  0  0  0
M  END
> <Molecule Name>
108

> <CDD Number>
CDD-15981

> <Human_sEH_IC50_uM>
0.17

> <Mouse_sEH_IC50_uM>
0.13

$$$$

SketchEl molfile

 15 15  0  0  0  0  0  0  0  0999 V2000
    0.0000    0.8987    0.0000 C   0  0  0  0  0  0  0  0  0  0  0  0
    1.2124    0.1987    0.0000 C   0  0  0  0  0  0  0  0  0  0  0  0
    2.4249    0.8987    0.0000 C   0  0  0  0  0  0  0  0  0  0  0  0
    2.4249    2.2987    0.0000 C   0  0  0  0  0  0  0  0  0  0  0  0
    1.2124    2.9987    0.0000 C   0  0  0  0  0  0  0  0  0  0  0  0
    0.0000    2.2987    0.0000 C   0  0  0  0  0  0  0  0  0  0  0  0
    3.6373    0.1987    0.0000 N   0  0  0  0  0  0  0  0  0  0  0  0
    4.6273    0.7993    0.0000 C   0  0  0  0  0  0  0  0  0  0  0  0
    5.8397    0.0993    0.0000 N   0  0  0  0  0  0  0  0  0  0  0  0
    4.6273    2.1993    0.0000 O   0  0  0  0  0  0  0  0  0  0  0  0
    6.8296    0.7000    0.0000 C   0  0  0  0  0  0  0  0  0  0  0  0
    8.0421    0.0000    0.0000 C   0  0  0  0  0  0  0  0  0  0  0  0
    9.2545    0.7000    0.0000 N   0  0  0  0  0  0  0  0  0  0  0  0
    9.2545    2.1000    0.0000 C   0  0  0  0  0  0  0  0  0  0  0  0
   10.4669    0.0000    0.0000 C   0  0  0  0  0  0  0  0  0  0  0  0
  1  2  1  0  0  0  0
  2  3  1  0  0  0  0
  3  4  1  0  0  0  0
  4  5  1  0  0  0  0
  5  6  1  0  0  0  0
  6  1  1  0  0  0  0
  3  7  1  0  0  0  0
  7  8  1  0  0  0  0
  8  9  1  0  0  0  0
  8 10  2  0  0  0  0
  9 11  1  0  0  0  0
 11 12  1  0  0  0  0
 12 13  1  0  0  0  0
 13 14  1  0  0  0  0
 13 15  1  0  0  0  0
M  END
> <Molecule Name>
106

> <CDD Number>
CDD-15904

> <Human_sEH_IC50_uM>
150.0

> <Mouse_sEH_IC50_uM>
39.4

$$$$

SketchEl molfile

 20 21  0  0  0  0  0  0  0  0999 V2000
    7.2746    0.7000    0.0000 C   0  0  0  0  0  0  0  0  0  0  0  0
    6.0622    0.0000    0.0000 N   0  0  0  0  0  0  0  0  0  0  0  0
    4.8497    0.7000    0.0000 C   0  0  0  0  0  0  0  0  0  0  0  0
    3.6373    0.0000    0.0000 N   0  0  0  0  0  0  0  0  0  0  0  0
    4.8497    2.1000    0.0000 O   0  0  0  0  0  0  0  0  0  0  0  0
    2.4249    0.7000    0.0000 C   0  0  0  0  0  0  0  0  0  0  0  0
    2.4249    2.1000    0.0000 C   0  0  0  0  0  0  0  0  0  0  0  0
    1.2124    2.8000    0.0000 C   0  0  0  0  0  0  0  0  0  0  0  0
    0.0000    2.1000    0.0000 C   0  0  0  0  0  0  0  0  0  0  0  0
    0.0000    0.7000    0.0000 C   0  0  0  0  0  0  0  0  0  0  0  0
    1.2124    0.0000    0.0000 C   0  0  0  0  0  0  0  0  0  0  0  0
    8.4870    0.0000    0.0000 C   0  0  0  0  0  0  0  0  0  0  0  0
    9.6995    0.7000    0.0000 C   0  0  0  0  0  0  0  0  0  0  0  0
   10.9119    0.0000    0.0000 C   0  0  0  0  0  0  0  0  0  0  0  0
   12.1244    0.7000    0.0000 C   0  0  0  0  0  0  0  0  0  0  0  0
   13.3368    0.0000    0.0000 C   0  0  0  0  0  0  0  0  0  0  0  0
   14.5492    0.7000    0.0000 C   0  0  0  0  0  0  0  0  0  0  0  0
   14.5492    2.1000    0.0000 C   0  0  0  0  0  0  0  0  0  0  0  0
   13.3368    2.8000    0.0000 C   0  0  0  0  0  0  0  0  0  0  0  0
   12.1244    2.1000    0.0000 C   0  0  0  0  0  0  0  0  0  0  0  0
  1  2  1  0  0  0  0
  2  3  1  0  0  0  0
  3  4  1  0  0  0  0
  3  5  2  0  0  0  0
  4  6  1  0  0  0  0
  6  7  1  0  0  0  0
  7  8  1  0  0  0  0
  8  9  1  0  0  0  0
  9 10  1  0  0  0  0
 10 11  1  0  0  0  0
 11  6  1  0  0  0  0
  1 12  1  0  0  0  0
 12 13  1  0  0  0  0
 13 14  1  0  0  0  0
 14 15  1  0  0  0  0
 15 16  2  0  0  0  0
 16 17  1  0  0  0  0
 17 18  2  0  0  0  0
 18 19  1  0  0  0  0
 19 20  2  0  0  0  0
 20 15  1  0  0  0  0
M  END
> <Molecule Name>
105

> <CDD Number>
CDD-15970

> <Human_sEH_IC50_uM>
0.58

> <Mouse_sEH_IC50_uM>
0.05

$$$$

SketchEl molfile

 19 20  0  0  0  0  0  0  0  0999 V2000
    7.2746    2.8000    0.0000 C   0  0  0  0  0  0  0  0  0  0  0  0
    6.0622    2.1000    0.0000 N   0  0  0  0  0  0  0  0  0  0  0  0
    4.8497    2.8000    0.0000 C   0  0  0  0  0  0  0  0  0  0  0  0
    3.6373    2.1000    0.0000 N   0  0  0  0  0  0  0  0  0  0  0  0
    4.8497    4.2000    0.0000 O   0  0  0  0  0  0  0  0  0  0  0  0
    2.4249    2.8000    0.0000 C   0  0  0  0  0  0  0  0  0  0  0  0
    2.4249    4.2000    0.0000 C   0  0  0  0  0  0  0  0  0  0  0  0
    1.2124    4.9000    0.0000 C   0  0  0  0  0  0  0  0  0  0  0  0
    0.0000    4.2000    0.0000 C   0  0  0  0  0  0  0  0  0  0  0  0
    0.0000    2.8000    0.0000 C   0  0  0  0  0  0  0  0  0  0  0  0
    1.2124    2.1000    0.0000 C   0  0  0  0  0  0  0  0  0  0  0  0
    8.4870    2.1000    0.0000 C   0  0  0  0  0  0  0  0  0  0  0  0
    9.6995    2.8000    0.0000 C   0  0  0  0  0  0  0  0  0  0  0  0
   10.9119    2.1000    0.0000 C   0  0  0  0  0  0  0  0  0  0  0  0
   10.9119    0.7000    0.0000 C   0  0  0  0  0  0  0  0  0  0  0  0
   12.1244    0.0000    0.0000 C   0  0  0  0  0  0  0  0  0  0  0  0
   13.3368    0.7000    0.0000 C   0  0  0  0  0  0  0  0  0  0  0  0
   13.3368    2.1000    0.0000 C   0  0  0  0  0  0  0  0  0  0  0  0
   12.1244    2.8000    0.0000 C   0  0  0  0  0  0  0  0  0  0  0  0
  1  2  1  0  0  0  0
  2  3  1  0  0  0  0
  3  4  1  0  0  0  0
  3  5  2  0  0  0  0
  4  6  1  0  0  0  0
  6  7  1  0  0  0  0
  7  8  1  0  0  0  0
  8  9  1  0  0  0  0
  9 10  1  0  0  0  0
 10 11  1  0  0  0  0
 11  6  1  0  0  0  0
  1 12  1  0  0  0  0
 12 13  1  0  0  0  0
 13 14  1  0  0  0  0
 14 15  2  0  0  0  0
 15 16  1  0  0  0  0
 16 17  2  0  0  0  0
 17 18  1  0  0  0  0
 18 19  2  0  0  0  0
 19 14  1  0  0  0  0
M  END
> <Molecule Name>
104

> <CDD Number>
CDD-15969

> <Human_sEH_IC50_uM>
0.29

> <Mouse_sEH_IC50_uM>
0.04

$$$$

SketchEl molfile

 14 14  0  0  0  0  0  0  0  0999 V2000
    0.0000    2.2987    0.0000 C   0  0  0  0  0  0  0  0  0  0  0  0
    1.2124    1.5987    0.0000 C   0  0  0  0  0  0  0  0  0  0  0  0
    2.4249    2.2987    0.0000 C   0  0  0  0  0  0  0  0  0  0  0  0
    2.4249    3.6987    0.0000 C   0  0  0  0  0  0  0  0  0  0  0  0
    1.2124    4.3987    0.0000 C   0  0  0  0  0  0  0  0  0  0  0  0
    0.0000    3.6987    0.0000 C   0  0  0  0  0  0  0  0  0  0  0  0
    3.6373    1.5987    0.0000 N   0  0  0  0  0  0  0  0  0  0  0  0
    4.6273    2.1993    0.0000 C   0  0  0  0  0  0  0  0  0  0  0  0
    5.8397    1.4993    0.0000 N   0  0  0  0  0  0  0  0  0  0  0  0
    4.6273    3.5993    0.0000 O   0  0  0  0  0  0  0  0  0  0  0  0
    6.8296    2.1000    0.0000 C   0  0  0  0  0  0  0  0  0  0  0  0
    8.0421    1.4000    0.0000 C   0  0  0  0  0  0  0  0  0  0  0  0
    9.2545    2.1000    0.0000 C   0  0  0  0  0  0  0  0  0  0  0  0
    8.0421    0.0000    0.0000 C   0  0  0  0  0  0  0  0  0  0  0  0
  1  2  1  0  0  0  0
  2  3  1  0  0  0  0
  3  4  1  0  0  0  0
  4  5  1  0  0  0  0
  5  6  1  0  0  0  0
  6  1  1  0  0  0  0
  3  7  1  0  0  0  0
  7  8  1  0  0  0  0
  8  9  1  0  0  0  0
  8 10  2  0  0  0  0
  9 11  1  0  0  0  0
 11 12  1  0  0  0  0
 12 13  1  0  0  0  0
 12 14  1  0  0  0  0
M  END
> <Molecule Name>
103

> <CDD Number>
CDD-15898

> <Human_sEH_IC50_uM>
2.2

> <Mouse_sEH_IC50_uM>
0.12

$$$$

SketchEl molfile

 14 13  0  0  0  0  0  0  0  0999 V2000
    3.6373    0.7993    0.0000 C   0  0  0  0  0  0  0  0  0  0  0  0
    4.8497    0.0993    0.0000 C   0  0  0  0  0  0  0  0  0  0  0  0
    6.0622    0.7993    0.0000 C   0  0  0  0  0  0  0  0  0  0  0  0
    7.2746    0.0993    0.0000 N   0  0  0  0  0  0  0  0  0  0  0  0
    8.4870    0.7993    0.0000 C   0  0  0  0  0  0  0  0  0  0  0  0
    9.6995    0.0993    0.0000 N   0  0  0  0  0  0  0  0  0  0  0  0
    8.4870    2.1993    0.0000 O   0  0  0  0  0  0  0  0  0  0  0  0
    2.4249    0.0993    0.0000 C   0  0  0  0  0  0  0  0  0  0  0  0
    1.2124    0.7993    0.0000 C   0  0  0  0  0  0  0  0  0  0  0  0
    0.0000    0.0993    0.0000 C   0  0  0  0  0  0  0  0  0  0  0  0
   10.6894    0.7000    0.0000 C   0  0  0  0  0  0  0  0  0  0  0  0
   11.9019    0.0000    0.0000 C   0  0  0  0  0  0  0  0  0  0  0  0
   13.1143    0.7000    0.0000 C   0  0  0  0  0  0  0  0  0  0  0  0
   14.3267    0.0000    0.0000 C   0  0  0  0  0  0  0  0  0  0  0  0
  1  2  1  0  0  0  0
  2  3  1  0  0  0  0
  3  4  1  0  0  0  0
  4  5  1  0  0  0  0
  5  6  1  0  0  0  0
  5  7  2  0  0  0  0
  1  8  1  0  0  0  0
  8  9  1  0  0  0  0
  9 10  1  0  0  0  0
  6 11  1  0  0  0  0
 11 12  1  0  0  0  0
 12 13  1  0  0  0  0
 13 14  1  0  0  0  0
M  END
> <Molecule Name>
102

> <CDD Number>
CDD-15809

> <Human_sEH_IC50_uM>
4.3

> <Mouse_sEH_IC50_uM>
1.7

$$$$

SketchEl molfile

 12 11  0  0  0  0  0  0  0  0999 V2000
    6.0622    0.7000    0.0000 C   0  0  0  0  0  0  0  0  0  0  0  0
    7.2746    0.0000    0.0000 C   0  0  0  0  0  0  0  0  0  0  0  0
    8.4870    0.7000    0.0000 C   0  0  0  0  0  0  0  0  0  0  0  0
    9.6995    0.0000    0.0000 N   0  0  0  0  0  0  0  0  0  0  0  0
   10.9119    0.7000    0.0000 C   0  0  0  0  0  0  0  0  0  0  0  0
   12.1244    0.0000    0.0000 N   0  0  0  0  0  0  0  0  0  0  0  0
   10.9119    2.1000    0.0000 O   0  0  0  0  0  0  0  0  0  0  0  0
    4.8497    0.0000    0.0000 C   0  0  0  0  0  0  0  0  0  0  0  0
    3.6373    0.7000    0.0000 C   0  0  0  0  0  0  0  0  0  0  0  0
    2.4249    0.0000    0.0000 C   0  0  0  0  0  0  0  0  0  0  0  0
    1.2124    0.7000    0.0000 C   0  0  0  0  0  0  0  0  0  0  0  0
    0.0000    0.0000    0.0000 C   0  0  0  0  0  0  0  0  0  0  0  0
  1  2  1  0  0  0  0
  2  3  1  0  0  0  0
  3  4  1  0  0  0  0
  4  5  1  0  0  0  0
  5  6  1  0  0  0  0
  5  7  2  0  0  0  0
  1  8  1  0  0  0  0
  8  9  1  0  0  0  0
  9 10  1  0  0  0  0
 10 11  1  0  0  0  0
 11 12  1  0  0  0  0
M  END
> <Molecule Name>
101

> <CDD Number>
CDD-15814

> <Human_sEH_IC50_uM>
5.5

> <Mouse_sEH_IC50_uM>
1.04

$$$$

SketchEl molfile

 13 13  0  0  0  0  0  0  0  0999 V2000
    0.0000    0.8987    0.0000 C   0  0  0  0  0  0  0  0  0  0  0  0
    1.2124    0.1987    0.0000 C   0  0  0  0  0  0  0  0  0  0  0  0
    2.4249    0.8987    0.0000 C   0  0  0  0  0  0  0  0  0  0  0  0
    2.4249    2.2987    0.0000 C   0  0  0  0  0  0  0  0  0  0  0  0
    1.2124    2.9987    0.0000 C   0  0  0  0  0  0  0  0  0  0  0  0
    0.0000    2.2987    0.0000 C   0  0  0  0  0  0  0  0  0  0  0  0
    3.6373    0.1987    0.0000 N   0  0  0  0  0  0  0  0  0  0  0  0
    4.6273    0.7993    0.0000 C   0  0  0  0  0  0  0  0  0  0  0  0
    5.8397    0.0993    0.0000 N   0  0  0  0  0  0  0  0  0  0  0  0
    4.6273    2.1993    0.0000 O   0  0  0  0  0  0  0  0  0  0  0  0
    6.8296    0.7000    0.0000 C   0  0  0  0  0  0  0  0  0  0  0  0
    8.0421    0.0000    0.0000 C   0  0  0  0  0  0  0  0  0  0  0  0
    9.2545    0.7000    0.0000 C   0  0  0  0  0  0  0  0  0  0  0  0
  1  2  1  0  0  0  0
  2  3  1  0  0  0  0
  3  4  1  0  0  0  0
  4  5  1  0  0  0  0
  5  6  1  0  0  0  0
  6  1  1  0  0  0  0
  3  7  1  0  0  0  0
  7  8  1  0  0  0  0
  8  9  1  0  0  0  0
  8 10  2  0  0  0  0
  9 11  1  0  0  0  0
 11 12  1  0  0  0  0
 12 13  2  0  0  0  0
M  END
> <Molecule Name>
90

> <CDD Number>
CDD-15900

> <Human_sEH_IC50_uM>
32.0

> <Mouse_sEH_IC50_uM>
11.6

$$$$

SketchEl molfile

 29 28  0  0  0  0  0  0  0  0999 V2000
    0.7000    3.8262    0.0000 C   0  0  0  0  0  0  0  0  0  0  0  0
    0.0000    2.6138    0.0000 C   0  0  0  0  0  0  0  0  0  0  0  0
    0.7000    1.4013    0.0000 C   0  0  0  0  0  0  0  0  0  0  0  0
    2.1000    1.4013    0.0000 C   0  0  0  0  0  0  0  0  0  0  0  0
    2.1000    3.8262    0.0000 C   0  0  0  0  0  0  0  0  0  0  0  0
    3.3124    3.1262    0.0000 C   0  0  0  0  0  0  0  0  0  0  0  0
    3.3124    2.1013    0.0000 C   0  0  0  0  0  0  0  0  0  0  0  0
    4.5249    1.4013    0.0000 C   0  0  0  0  0  0  0  0  0  0  0  0
    4.5249    3.8262    0.0000 C   0  0  0  0  0  0  0  0  0  0  0  0
    5.9249    3.8262    0.0000 C   0  0  0  0  0  0  0  0  0  0  0  0
    5.9249    1.4013    0.0000 C   0  0  0  0  0  0  0  0  0  0  0  0
    7.1373    3.1262    0.0000 C   0  0  0  0  0  0  0  0  0  0  0  0
    7.1373    2.1013    0.0000 C   0  0  0  0  0  0  0  0  0  0  0  0
    8.3497    1.4013    0.0000 C   0  0  0  0  0  0  0  0  0  0  0  0
    8.3497    3.8262    0.0000 C   0  0  0  0  0  0  0  0  0  0  0  0
    9.5622    3.1262    0.0000 C   0  0  0  0  0  0  0  0  0  0  0  0
   10.7746    3.8262    0.0000 C   0  0  0  0  0  0  0  0  0  0  0  0
   11.9871    3.1262    0.0000 N   0  0  0  0  0  0  0  0  0  0  0  0
   10.7746    5.2262    0.0000 O   0  0  0  0  0  0  0  0  0  0  0  0
    9.5622    2.1013    0.0000 C   0  0  0  0  0  0  0  0  0  0  0  0
   10.7746    1.4013    0.0000 C   0  0  0  0  0  0  0  0  0  0  0  0
   10.7746    0.0000    0.0000 C   0  0  0  0  0  0  0  0  0  0  0  0
   12.9770    3.7269    0.0000 C   0  0  0  0  0  0  0  0  0  0  0  0
   14.2044    3.0535    0.0000 C   0  0  0  0  0  0  0  0  0  0  0  0
   12.9770    5.1269    0.0000 C   0  0  0  0  0  0  0  0  0  0  0  0
   15.4180    3.7541    0.0000 C   0  0  0  0  0  0  0  0  0  0  0  0
   16.6316    3.0535    0.0000 C   0  0  0  0  0  0  0  0  0  0  0  0
   17.8452    3.7541    0.0000 O   0  0  0  0  0  0  0  0  0  0  0  0
   12.1760    0.0000    0.0000 C   0  0  0  0  0  0  0  0  0  0  0  0
  1  2  1  0  0  0  0
  2  3  1  0  0  0  0
  3  4  2  0  0  0  0
  1  5  2  0  0  0  0
  5  6  1  0  0  0  0
  4  7  1  0  0  0  0
  7  8  1  0  0  0  0
  6  9  1  0  0  0  0
  9 10  2  0  0  0  0
  8 11  2  0  0  0  0
 10 12  1  0  0  0  0
 11 13  1  0  0  0  0
 13 14  1  0  0  0  0
 12 15  1  0  0  0  0
 15 16  1  0  0  0  0
 16 17  1  0  0  0  0
 17 18  1  0  0  0  0
 17 19  2  0  0  0  0
 14 20  1  0  0  0  0
 20 21  1  0  0  0  0
 21 22  1  0  0  0  0
 18 23  1  0  0  0  0
 23 24  1  0  0  0  0
 23 25  1  1  0  0  0
 26 24  1  0  0  0  0
 27 26  1  0  0  0  0
 28 27  1  0  0  0  0
 22 29  1  0  0  0  0
M  END
> <Molecule Name>
89

> <CDD Number>
CDD-16146

> <Human_sEH_IC50_uM>
49.0

> <Mouse_sEH_IC50_uM>
60.0

$$$$

SketchEl molfile

  8  7  0  0  0  0  0  0  0  0999 V2000
    1.2124    1.4000    0.0000 N   0  0  0  0  0  0  0  0  0  0  0  0
    2.4249    2.1000    0.0000 C   0  0  0  0  0  0  0  0  0  0  0  0
    3.6373    1.4000    0.0000 N   0  0  0  0  0  0  0  0  0  0  0  0
    2.4249    3.5000    0.0000 N   0  0  0  0  0  0  0  0  0  0  0  0
    3.6373    0.0000    0.0000 C   0  0  0  0  0  0  0  0  0  0  0  0
    4.8497    2.1000    0.0000 C   0  0  0  0  0  0  0  0  0  0  0  0
    1.2124    0.0000    0.0000 C   0  0  0  0  0  0  0  0  0  0  0  0
    0.0000    2.1000    0.0000 C   0  0  0  0  0  0  0  0  0  0  0  0
  1  2  1  0  0  0  0
  2  3  1  0  0  0  0
  2  4  2  0  0  0  0
  3  5  1  0  0  0  0
  3  6  1  0  0  0  0
  1  7  1  0  0  0  0
  1  8  1  0  0  0  0
M  END
> <Molecule Name>
88

> <CDD Number>
CDD-16189

> <Human_sEH_IC50_uM>
500.0

> <Mouse_sEH_IC50_uM>
500.0

$$$$

SketchEl molfile

 14 14  0  0  0  0  0  0  0  0999 V2000
    1.2124    2.1000    0.0000 C   0  0  0  0  0  0  0  0  0  0  0  0
    1.2124    0.7000    0.0000 C   0  0  0  0  0  0  0  0  0  0  0  0
    2.4249    0.0000    0.0000 C   0  0  0  0  0  0  0  0  0  0  0  0
    3.6373    0.7000    0.0000 C   0  0  0  0  0  0  0  0  0  0  0  0
    3.6373    2.1000    0.0000 C   0  0  0  0  0  0  0  0  0  0  0  0
    2.4249    2.8000    0.0000 C   0  0  0  0  0  0  0  0  0  0  0  0
    0.0000    2.8000    0.0000 Cl  0  0  0  0  0  0  0  0  0  0  0  0
    0.0000    0.0000    0.0000 Cl  0  0  0  0  0  0  0  0  0  0  0  0
    4.8497    0.0000    0.0000 C   0  0  0  0  0  0  0  0  0  0  0  0
    6.0622    0.7000    0.0000 C   0  0  0  0  0  0  0  0  0  0  0  0
    7.2746    0.0000    0.0000 N   0  0  0  0  0  0  0  0  0  0  0  0
    6.0622    2.1000    0.0000 N   0  0  0  0  0  0  0  0  0  0  0  0
    7.2746    2.8000    0.0000 C   0  0  0  0  0  0  0  0  0  0  0  0
    8.6746    2.8000    0.0000 N   0  0  0  0  0  0  0  0  0  0  0  0
  1  2  2  0  0  0  0
  2  3  1  0  0  0  0
  3  4  2  0  0  0  0
  4  5  1  0  0  0  0
  5  6  2  0  0  0  0
  6  1  1  0  0  0  0
  1  7  1  0  0  0  0
  2  8  1  0  0  0  0
  4  9  1  0  0  0  0
  9 10  1  0  0  0  0
 10 11  1  0  0  0  0
 10 12  2  0  0  0  0
 12 13  1  0  0  0  0
 13 14  3  0  0  0  0
M  END
> <Molecule Name>
87

> <CDD Number>
CDD-15637

> <Human_sEH_IC50_uM>
500.0

> <Mouse_sEH_IC50_uM>
500.0

$$$$

SketchEl molfile

 18 19  0  0  0  0  0  0  0  0999 V2000
    0.0000    3.5000    0.0000 C   0  0  0  0  0  0  0  0  0  0  0  0
    0.0000    2.1000    0.0000 C   0  0  0  0  0  0  0  0  0  0  0  0
    1.2124    1.4000    0.0000 C   0  0  0  0  0  0  0  0  0  0  0  0
    2.4249    2.1000    0.0000 C   0  0  0  0  0  0  0  0  0  0  0  0
    2.4249    3.5000    0.0000 C   0  0  0  0  0  0  0  0  0  0  0  0
    1.2124    4.2000    0.0000 C   0  0  0  0  0  0  0  0  0  0  0  0
    1.2124    0.0000    0.0000 C   0  0  0  0  0  0  0  0  0  0  0  0
    3.6373    1.4000    0.0000 N   0  0  0  0  0  0  0  0  0  0  0  0
    4.8497    2.1000    0.0000 C   0  0  0  0  0  0  0  0  0  0  0  0
    6.0622    1.4000    0.0000 N   0  0  0  0  0  0  0  0  0  0  0  0
    4.8497    3.5000    0.0000 N   0  0  0  0  0  0  0  0  0  0  0  0
    7.2746    2.1000    0.0000 C   0  0  0  0  0  0  0  0  0  0  0  0
    8.4870    1.4000    0.0000 C   0  0  0  0  0  0  0  0  0  0  0  0
    9.6995    2.1000    0.0000 C   0  0  0  0  0  0  0  0  0  0  0  0
    9.6995    3.5000    0.0000 C   0  0  0  0  0  0  0  0  0  0  0  0
    8.4870    4.2000    0.0000 C   0  0  0  0  0  0  0  0  0  0  0  0
    7.2746    3.5000    0.0000 C   0  0  0  0  0  0  0  0  0  0  0  0
    8.4870    0.0000    0.0000 C   0  0  0  0  0  0  0  0  0  0  0  0
  1  2  2  0  0  0  0
  2  3  1  0  0  0  0
  3  4  2  0  0  0  0
  4  5  1  0  0  0  0
  5  6  2  0  0  0  0
  6  1  1  0  0  0  0
  3  7  1  0  0  0  0
  4  8  1  0  0  0  0
  8  9  1  0  0  0  0
  9 10  1  0  0  0  0
  9 11  2  0  0  0  0
 10 12  1  0  0  0  0
 12 13  2  0  0  0  0
 13 14  1  0  0  0  0
 14 15  2  0  0  0  0
 15 16  1  0  0  0  0
 16 17  2  0  0  0  0
 17 12  1  0  0  0  0
 13 18  1  0  0  0  0
M  END
> <Molecule Name>
86

> <CDD Number>
CDD-15636

> <Human_sEH_IC50_uM>
500.0

> <Mouse_sEH_IC50_uM>
500.0

$$$$

SketchEl molfile

  6  5  0  0  0  0  0  0  0  0999 V2000
    1.2124    1.4000    0.0000 N   0  0  0  0  0  0  0  0  0  0  0  0
    2.2024    2.0007    0.0000 C   0  0  0  0  0  0  0  0  0  0  0  0
    3.4148    1.3007    0.0000 N   0  0  0  0  0  0  0  0  0  0  0  0
    2.2024    3.4007    0.0000 O   0  0  0  0  0  0  0  0  0  0  0  0
    1.2124    0.0000    0.0000 C   0  0  0  0  0  0  0  0  0  0  0  0
    0.0000    2.1000    0.0000 C   0  0  0  0  0  0  0  0  0  0  0  0
  1  2  1  0  0  0  0
  2  3  1  0  0  0  0
  2  4  2  0  0  0  0
  1  5  1  0  0  0  0
  1  6  1  0  0  0  0
M  END
> <Molecule Name>
85

> <CDD Number>
CDD-15792

> <Human_sEH_IC50_uM>
500.0

> <Mouse_sEH_IC50_uM>
500.0

$$$$

SketchEl molfile

 16 17  0  0  0  0  0  0  0  0999 V2000
    0.0000    2.1000    0.0000 C   0  0  0  0  0  0  0  0  0  0  0  0
    0.0000    0.7000    0.0000 C   0  0  0  0  0  0  0  0  0  0  0  0
    1.2124    0.0000    0.0000 C   0  0  0  0  0  0  0  0  0  0  0  0
    2.4249    0.7000    0.0000 C   0  0  0  0  0  0  0  0  0  0  0  0
    2.4249    2.1000    0.0000 C   0  0  0  0  0  0  0  0  0  0  0  0
    1.2124    2.8000    0.0000 C   0  0  0  0  0  0  0  0  0  0  0  0
    3.6373    0.0000    0.0000 C   0  0  0  0  0  0  0  0  0  0  0  0
    4.8497    0.7000    0.0000 C   0  0  0  0  0  0  0  0  0  0  0  0
    6.0622    0.0000    0.0000 C   0  0  0  0  0  0  0  0  0  0  0  0
    7.2746    0.7000    0.0000 C   0  0  0  0  0  0  0  0  0  0  0  0
    8.4870    0.0000    0.0000 C   0  0  0  0  0  0  0  0  0  0  0  0
    9.6995    0.7000    0.0000 C   0  0  0  0  0  0  0  0  0  0  0  0
    9.6995    2.1000    0.0000 C   0  0  0  0  0  0  0  0  0  0  0  0
    8.4870    2.8000    0.0000 C   0  0  0  0  0  0  0  0  0  0  0  0
    7.2746    2.1000    0.0000 C   0  0  0  0  0  0  0  0  0  0  0  0
    4.8497    2.1000    0.0000 O   0  0  0  0  0  0  0  0  0  0  0  0
  1  2  2  0  0  0  0
  2  3  1  0  0  0  0
  3  4  2  0  0  0  0
  4  5  1  0  0  0  0
  5  6  2  0  0  0  0
  6  1  1  0  0  0  0
  4  7  1  0  0  0  0
  7  8  1  0  0  0  0
  8  9  1  0  0  0  0
  9 10  1  0  0  0  0
 10 11  2  0  0  0  0
 11 12  1  0  0  0  0
 12 13  2  0  0  0  0
 13 14  1  0  0  0  0
 14 15  2  0  0  0  0
 15 10  1  0  0  0  0
  8 16  2  0  0  0  0
M  END
> <Molecule Name>
84

> <CDD Number>
CDD-15635

> <Human_sEH_IC50_uM>
405.0

> <Mouse_sEH_IC50_uM>
431.0

$$$$

SketchEl molfile

 16 17  0  0  0  0  0  0  0  0999 V2000
    0.0000    2.1000    0.0000 C   0  0  0  0  0  0  0  0  0  0  0  0
    0.0000    0.7000    0.0000 C   0  0  0  0  0  0  0  0  0  0  0  0
    1.2124    0.0000    0.0000 C   0  0  0  0  0  0  0  0  0  0  0  0
    2.4249    0.7000    0.0000 C   0  0  0  0  0  0  0  0  0  0  0  0
    2.4249    2.1000    0.0000 C   0  0  0  0  0  0  0  0  0  0  0  0
    1.2124    2.8000    0.0000 C   0  0  0  0  0  0  0  0  0  0  0  0
    3.6373    0.0000    0.0000 C   0  0  0  0  0  0  0  0  0  0  0  0
    4.8497    0.7000    0.0000 C   0  0  0  0  0  0  0  0  0  0  0  0
    6.0622    0.0000    0.0000 O   0  0  0  0  0  0  0  0  0  0  0  0
    7.2746    0.7000    0.0000 C   0  0  0  0  0  0  0  0  0  0  0  0
    8.4870    0.0000    0.0000 C   0  0  0  0  0  0  0  0  0  0  0  0
    9.6995    0.7000    0.0000 C   0  0  0  0  0  0  0  0  0  0  0  0
    9.6995    2.1000    0.0000 C   0  0  0  0  0  0  0  0  0  0  0  0
    8.4870    2.8000    0.0000 C   0  0  0  0  0  0  0  0  0  0  0  0
    7.2746    2.1000    0.0000 C   0  0  0  0  0  0  0  0  0  0  0  0
    4.8497    2.1000    0.0000 O   0  0  0  0  0  0  0  0  0  0  0  0
  1  2  2  0  0  0  0
  2  3  1  0  0  0  0
  3  4  2  0  0  0  0
  4  5  1  0  0  0  0
  5  6  2  0  0  0  0
  6  1  1  0  0  0  0
  4  7  1  0  0  0  0
  7  8  1  0  0  0  0
  8  9  1  0  0  0  0
  9 10  1  0  0  0  0
 10 11  2  0  0  0  0
 11 12  1  0  0  0  0
 12 13  2  0  0  0  0
 13 14  1  0  0  0  0
 14 15  2  0  0  0  0
 15 10  1  0  0  0  0
  8 16  2  0  0  0  0
M  END
> <Molecule Name>
83

> <CDD Number>
CDD-15634

> <Human_sEH_IC50_uM>
438.0

> <Mouse_sEH_IC50_uM>
427.0

$$$$

SketchEl molfile

 10 10  0  0  0  0  0  0  0  0999 V2000
    3.9736    0.0993    0.0000 N   0  0  0  0  0  0  0  0  0  0  0  0
    4.9635    0.7000    0.0000 C   0  0  0  0  0  0  0  0  0  0  0  0
    6.1760    0.0000    0.0000 N   0  0  0  0  0  0  0  0  0  0  0  0
    4.9635    2.1000    0.0000 O   0  0  0  0  0  0  0  0  0  0  0  0
    2.4249    0.7993    0.0000 C   0  0  0  0  0  0  0  0  0  0  0  0
    2.4249    2.1993    0.0000 C   0  0  0  0  0  0  0  0  0  0  0  0
    1.2124    2.8993    0.0000 C   0  0  0  0  0  0  0  0  0  0  0  0
    0.0000    2.1993    0.0000 C   0  0  0  0  0  0  0  0  0  0  0  0
    0.0000    0.7993    0.0000 C   0  0  0  0  0  0  0  0  0  0  0  0
    1.2124    0.0993    0.0000 C   0  0  0  0  0  0  0  0  0  0  0  0
  1  2  1  0  0  0  0
  2  3  1  0  0  0  0
  2  4  2  0  0  0  0
  1  5  1  0  0  0  0
  5  6  2  0  0  0  0
  6  7  1  0  0  0  0
  7  8  2  0  0  0  0
  8  9  1  0  0  0  0
  9 10  2  0  0  0  0
 10  5  1  0  0  0  0
M  END
> <Molecule Name>
82

> <CDD Number>
CDD-15791

> <Human_sEH_IC50_uM>
500.0

> <Mouse_sEH_IC50_uM>
500.0

$$$$

SketchEl molfile

 16 17  0  0  0  0  0  0  0  0999 V2000
    0.0000    2.1000    0.0000 C   0  0  0  0  0  0  0  0  0  0  0  0
    0.0000    0.7000    0.0000 C   0  0  0  0  0  0  0  0  0  0  0  0
    1.2124    0.0000    0.0000 C   0  0  0  0  0  0  0  0  0  0  0  0
    2.4249    0.7000    0.0000 C   0  0  0  0  0  0  0  0  0  0  0  0
    2.4249    2.1000    0.0000 C   0  0  0  0  0  0  0  0  0  0  0  0
    1.2124    2.8000    0.0000 C   0  0  0  0  0  0  0  0  0  0  0  0
    3.6373    0.0000    0.0000 N   0  0  0  0  0  0  0  0  0  0  0  0
    4.8497    0.7000    0.0000 C   0  0  0  0  0  0  0  0  0  0  0  0
    6.0622    0.0000    0.0000 N   0  0  0  0  0  0  0  0  0  0  0  0
    4.8497    2.1000    0.0000 N   0  0  0  0  0  0  0  0  0  0  0  0
    7.2746    0.7000    0.0000 C   0  0  0  0  0  0  0  0  0  0  0  0
    8.4870    0.0000    0.0000 C   0  0  0  0  0  0  0  0  0  0  0  0
    9.6995    0.7000    0.0000 C   0  0  0  0  0  0  0  0  0  0  0  0
    9.6995    2.1000    0.0000 C   0  0  0  0  0  0  0  0  0  0  0  0
    8.4870    2.8000    0.0000 C   0  0  0  0  0  0  0  0  0  0  0  0
    7.2746    2.1000    0.0000 C   0  0  0  0  0  0  0  0  0  0  0  0
  1  2  2  0  0  0  0
  2  3  1  0  0  0  0
  3  4  2  0  0  0  0
  4  5  1  0  0  0  0
  5  6  2  0  0  0  0
  6  1  1  0  0  0  0
  4  7  1  0  0  0  0
  7  8  1  0  0  0  0
  8  9  1  0  0  0  0
  8 10  2  0  0  0  0
  9 11  1  0  0  0  0
 11 12  2  0  0  0  0
 12 13  1  0  0  0  0
 13 14  2  0  0  0  0
 14 15  1  0  0  0  0
 15 16  2  0  0  0  0
 16 11  1  0  0  0  0
M  END
> <Molecule Name>
81

> <CDD Number>
CDD-8650

> <Human_sEH_IC50_uM>
500.0

> <Mouse_sEH_IC50_uM>
500.0

$$$$

SketchEl molfile

 15 16  0  0  0  0  0  0  0  0999 V2000
    0.0000    2.1000    0.0000 C   0  0  0  0  0  0  0  0  0  0  0  0
    0.0000    0.7000    0.0000 C   0  0  0  0  0  0  0  0  0  0  0  0
    1.2124    0.0000    0.0000 C   0  0  0  0  0  0  0  0  0  0  0  0
    2.4249    0.7000    0.0000 C   0  0  0  0  0  0  0  0  0  0  0  0
    2.4249    2.1000    0.0000 C   0  0  0  0  0  0  0  0  0  0  0  0
    1.2124    2.8000    0.0000 C   0  0  0  0  0  0  0  0  0  0  0  0
    3.6373    2.8000    0.0000 C   0  0  0  0  0  0  0  0  0  0  0  0
    4.8497    2.1000    0.0000 N   0  0  0  0  0  0  0  0  0  0  0  0
    3.6373    4.2000    0.0000 O   0  0  0  0  0  0  0  0  0  0  0  0
    6.0622    2.8000    0.0000 C   0  0  0  0  0  0  0  0  0  0  0  0
    7.2746    2.1000    0.0000 C   0  0  0  0  0  0  0  0  0  0  0  0
    8.4870    2.8000    0.0000 C   0  0  0  0  0  0  0  0  0  0  0  0
    8.4870    4.2000    0.0000 C   0  0  0  0  0  0  0  0  0  0  0  0
    7.2746    4.9000    0.0000 C   0  0  0  0  0  0  0  0  0  0  0  0
    6.0622    4.2000    0.0000 C   0  0  0  0  0  0  0  0  0  0  0  0
  1  2  2  0  0  0  0
  2  3  1  0  0  0  0
  3  4  2  0  0  0  0
  4  5  1  0  0  0  0
  5  6  2  0  0  0  0
  6  1  1  0  0  0  0
  5  7  1  0  0  0  0
  7  8  1  0  0  0  0
  7  9  2  0  0  0  0
  8 10  1  0  0  0  0
 10 11  2  0  0  0  0
 11 12  1  0  0  0  0
 12 13  2  0  0  0  0
 13 14  1  0  0  0  0
 14 15  2  0  0  0  0
 15 10  1  0  0  0  0
M  END
> <Molecule Name>
80

> <CDD Number>
CDD-7122

> <Human_sEH_IC50_uM>
300.0

> <Mouse_sEH_IC50_uM>
108.0

$$$$

SketchEl molfile

 18 19  0  0  0  0  0  0  0  0999 V2000
    0.0000    2.1000    0.0000 C   0  0  0  0  0  0  0  0  0  0  0  0
    0.0000    0.7000    0.0000 C   0  0  0  0  0  0  0  0  0  0  0  0
    1.2124    0.0000    0.0000 C   0  0  0  0  0  0  0  0  0  0  0  0
    2.4249    0.7000    0.0000 C   0  0  0  0  0  0  0  0  0  0  0  0
    2.4249    2.1000    0.0000 C   0  0  0  0  0  0  0  0  0  0  0  0
    1.2124    2.8000    0.0000 C   0  0  0  0  0  0  0  0  0  0  0  0
    3.6373    0.0000    0.0000 O   0  0  0  0  0  0  0  0  0  0  0  0
    4.8497    0.7000    0.0000 C   0  0  0  0  0  0  0  0  0  0  0  0
    6.0622    0.0000    0.0000 O   0  0  0  0  0  0  0  0  0  0  0  0
    4.8497    2.1000    0.0000 N   0  0  0  0  0  0  0  0  0  0  0  0
    7.2746    0.7000    0.0000 C   0  0  0  0  0  0  0  0  0  0  0  0
    8.4870    0.0000    0.0000 C   0  0  0  0  0  0  0  0  0  0  0  0
    9.6995    0.7000    0.0000 C   0  0  0  0  0  0  0  0  0  0  0  0
    9.6995    2.1000    0.0000 C   0  0  0  0  0  0  0  0  0  0  0  0
    8.4870    2.8000    0.0000 C   0  0  0  0  0  0  0  0  0  0  0  0
    7.2746    2.1000    0.0000 C   0  0  0  0  0  0  0  0  0  0  0  0
    5.8397    3.0900    0.0000 C   0  0  0  0  0  0  0  0  0  0  0  0
    7.0521    3.7900    0.0000 N   0  0  0  0  0  0  0  0  0  0  0  0
  1  2  2  0  0  0  0
  2  3  1  0  0  0  0
  3  4  2  0  0  0  0
  4  5  1  0  0  0  0
  5  6  2  0  0  0  0
  6  1  1  0  0  0  0
  4  7  1  0  0  0  0
  7  8  1  0  0  0  0
  8  9  1  0  0  0  0
  8 10  2  0  0  0  0
  9 11  1  0  0  0  0
 11 12  2  0  0  0  0
 12 13  1  0  0  0  0
 13 14  2  0  0  0  0
 14 15  1  0  0  0  0
 15 16  2  0  0  0  0
 16 11  1  0  0  0  0
 10 17  1  0  0  0  0
 17 18  3  0  0  0  0
M  END
> <Molecule Name>
76

> <CDD Number>
CDD-15633

> <Human_sEH_IC50_uM>
500.0

> <Mouse_sEH_IC50_uM>
500.0

$$$$

SketchEl molfile

 20 21  0  0  0  0  0  0  0  0999 V2000
    7.2746    0.7000    0.0000 C   0  0  0  0  0  0  0  0  0  0  0  0
    6.0622    0.0000    0.0000 N   0  0  0  0  0  0  0  0  0  0  0  0
    4.8497    0.7000    0.0000 C   0  0  0  0  0  0  0  0  0  0  0  0
    3.6373    0.0000    0.0000 N   0  0  0  0  0  0  0  0  0  0  0  0
    4.8497    2.1000    0.0000 O   0  0  0  0  0  0  0  0  0  0  0  0
    2.4249    0.7000    0.0000 C   0  0  0  0  0  0  0  0  0  0  0  0
    2.4249    2.1000    0.0000 C   0  0  0  0  0  0  0  0  0  0  0  0
    1.2124    2.8000    0.0000 C   0  0  0  0  0  0  0  0  0  0  0  0
    0.0000    2.1000    0.0000 C   0  0  0  0  0  0  0  0  0  0  0  0
    0.0000    0.7000    0.0000 C   0  0  0  0  0  0  0  0  0  0  0  0
    1.2124    0.0000    0.0000 C   0  0  0  0  0  0  0  0  0  0  0  0
    8.4870    0.0000    0.0000 C   0  0  0  0  0  0  0  0  0  0  0  0
    9.6995    0.7000    0.0000 C   0  0  0  0  0  0  0  0  0  0  0  0
    9.6995    2.1000    0.0000 C   0  0  0  0  0  0  0  0  0  0  0  0
    8.4870    2.8000    0.0000 C   0  0  0  0  0  0  0  0  0  0  0  0
    7.2746    2.1000    0.0000 C   0  0  0  0  0  0  0  0  0  0  0  0
   10.9119    2.8000    0.0000 C   0  0  0  0  0  0  0  0  0  0  0  0
   10.9119    4.2000    0.0000 C   0  0  0  0  0  0  0  0  0  0  0  0
   12.1244    2.1000    0.0000 C   0  0  0  0  0  0  0  0  0  0  0  0
   12.1244    3.5000    0.0000 C   0  0  0  0  0  0  0  0  0  0  0  0
  1  2  1  0  0  0  0
  2  3  1  0  0  0  0
  3  4  1  0  0  0  0
  3  5  2  0  0  0  0
  4  6  1  0  0  0  0
  6  7  1  0  0  0  0
  7  8  1  0  0  0  0
  8  9  1  0  0  0  0
  9 10  1  0  0  0  0
 10 11  1  0  0  0  0
 11  6  1  0  0  0  0
  1 12  2  0  0  0  0
 12 13  1  0  0  0  0
 13 14  2  0  0  0  0
 14 15  1  0  0  0  0
 15 16  2  0  0  0  0
 16  1  1  0  0  0  0
 14 17  1  0  0  0  0
 17 18  1  0  0  0  0
 17 19  1  0  0  0  0
 17 20  1  0  0  0  0
M  END
> <Molecule Name>
75

> <CDD Number>
CDD-15877

> <Human_sEH_IC50_uM>
0.23

> <Mouse_sEH_IC50_uM>
0.06

$$$$

SketchEl molfile

 16 17  0  0  0  0  0  0  0  0999 V2000
    0.0000    2.1000    0.0000 C   0  0  0  0  0  0  0  0  0  0  0  0
    0.0000    0.7000    0.0000 C   0  0  0  0  0  0  0  0  0  0  0  0
    1.2124    0.0000    0.0000 C   0  0  0  0  0  0  0  0  0  0  0  0
    2.4249    0.7000    0.0000 C   0  0  0  0  0  0  0  0  0  0  0  0
    2.4249    2.1000    0.0000 C   0  0  0  0  0  0  0  0  0  0  0  0
    1.2124    2.8000    0.0000 C   0  0  0  0  0  0  0  0  0  0  0  0
    3.6373    0.0000    0.0000 O   0  0  0  0  0  0  0  0  0  0  0  0
    4.8497    0.7000    0.0000 C   0  0  0  0  0  0  0  0  0  0  0  0
    6.0622    0.0000    0.0000 O   0  0  0  0  0  0  0  0  0  0  0  0
    4.8497    2.1000    0.0000 O   0  0  0  0  0  0  0  0  0  0  0  0
    7.2746    0.7000    0.0000 C   0  0  0  0  0  0  0  0  0  0  0  0
    8.4870    0.0000    0.0000 C   0  0  0  0  0  0  0  0  0  0  0  0
    9.6995    0.7000    0.0000 C   0  0  0  0  0  0  0  0  0  0  0  0
    9.6995    2.1000    0.0000 C   0  0  0  0  0  0  0  0  0  0  0  0
    8.4870    2.8000    0.0000 C   0  0  0  0  0  0  0  0  0  0  0  0
    7.2746    2.1000    0.0000 C   0  0  0  0  0  0  0  0  0  0  0  0
  1  2  2  0  0  0  0
  2  3  1  0  0  0  0
  3  4  2  0  0  0  0
  4  5  1  0  0  0  0
  5  6  2  0  0  0  0
  6  1  1  0  0  0  0
  4  7  1  0  0  0  0
  7  8  1  0  0  0  0
  8  9  1  0  0  0  0
  8 10  2  0  0  0  0
  9 11  1  0  0  0  0
 11 12  2  0  0  0  0
 12 13  1  0  0  0  0
 13 14  2  0  0  0  0
 14 15  1  0  0  0  0
 15 16  2  0  0  0  0
 16 11  1  0  0  0  0
M  END
> <Molecule Name>
74

> <CDD Number>
CDD-15632

> <Human_sEH_IC50_uM>
500.0

> <Mouse_sEH_IC50_uM>
500.0

$$$$

SketchEl molfile

 11 11  0  0  0  0  0  0  0  0999 V2000
    0.0000    0.7000    0.0000 C   0  0  0  0  0  0  0  0  0  0  0  0
    1.2124    0.0000    0.0000 C   0  0  0  0  0  0  0  0  0  0  0  0
    2.4249    0.7000    0.0000 C   0  0  0  0  0  0  0  0  0  0  0  0
    2.4249    2.1000    0.0000 C   0  0  0  0  0  0  0  0  0  0  0  0
    1.2124    2.8000    0.0000 C   0  0  0  0  0  0  0  0  0  0  0  0
    0.0000    2.1000    0.0000 C   0  0  0  0  0  0  0  0  0  0  0  0
    3.6373    0.0000    0.0000 N   0  0  0  0  0  0  0  0  0  0  0  0
    4.8497    0.7000    0.0000 C   0  0  0  0  0  0  0  0  0  0  0  0
    6.0622    0.0000    0.0000 O   0  0  0  0  0  0  0  0  0  0  0  0
    4.8497    2.1000    0.0000 O   0  0  0  0  0  0  0  0  0  0  0  0
    7.2746    0.7000    0.0000 C   0  0  0  0  0  0  0  0  0  0  0  0
  1  2  2  0  0  0  0
  2  3  1  0  0  0  0
  3  4  2  0  0  0  0
  4  5  1  0  0  0  0
  5  6  2  0  0  0  0
  6  1  1  0  0  0  0
  3  7  1  0  0  0  0
  7  8  1  0  0  0  0
  8  9  1  0  0  0  0
  8 10  2  0  0  0  0
  9 11  1  0  0  0  0
M  END
> <Molecule Name>
73

> <CDD Number>
CDD-16104

> <Human_sEH_IC50_uM>
51.0

> <Mouse_sEH_IC50_uM>
60.0

$$$$

SketchEl molfile

 16 17  0  0  0  0  0  0  0  0999 V2000
    0.0000    0.8987    0.0000 C   0  0  0  0  0  0  0  0  0  0  0  0
    1.2124    0.1987    0.0000 C   0  0  0  0  0  0  0  0  0  0  0  0
    2.4249    0.8987    0.0000 C   0  0  0  0  0  0  0  0  0  0  0  0
    2.4249    2.2987    0.0000 C   0  0  0  0  0  0  0  0  0  0  0  0
    1.2124    2.9987    0.0000 C   0  0  0  0  0  0  0  0  0  0  0  0
    0.0000    2.2987    0.0000 C   0  0  0  0  0  0  0  0  0  0  0  0
    3.6373    0.1987    0.0000 N   0  0  0  0  0  0  0  0  0  0  0  0
    4.6273    0.7993    0.0000 C   0  0  0  0  0  0  0  0  0  0  0  0
    5.8397    0.0993    0.0000 N   0  0  0  0  0  0  0  0  0  0  0  0
    6.8296    0.7000    0.0000 C   0  0  0  0  0  0  0  0  0  0  0  0
    8.0421    0.0000    0.0000 C   0  0  0  0  0  0  0  0  0  0  0  0
    9.2545    0.7000    0.0000 C   0  0  0  0  0  0  0  0  0  0  0  0
    9.2545    2.1000    0.0000 C   0  0  0  0  0  0  0  0  0  0  0  0
    8.0421    2.8000    0.0000 C   0  0  0  0  0  0  0  0  0  0  0  0
    6.8296    2.1000    0.0000 C   0  0  0  0  0  0  0  0  0  0  0  0
    4.6273    2.1993    0.0000 S   0  0  0  0  0  0  0  0  0  0  0  0
  1  2  1  0  0  0  0
  2  3  1  0  0  0  0
  3  4  1  0  0  0  0
  4  5  1  0  0  0  0
  5  6  1  0  0  0  0
  6  1  1  0  0  0  0
  3  7  1  0  0  0  0
  7  8  1  0  0  0  0
  8  9  1  0  0  0  0
  9 10  1  0  0  0  0
 10 11  1  0  0  0  0
 11 12  1  0  0  0  0
 12 13  1  0  0  0  0
 13 14  1  0  0  0  0
 14 15  1  0  0  0  0
 15 10  1  0  0  0  0
  8 16  2  0  0  0  0
M  END
> <Molecule Name>
71

> <CDD Number>
CDD-15786

> <Human_sEH_IC50_uM>
20.0

> <Mouse_sEH_IC50_uM>
99.0

$$$$

SketchEl molfile

  4  3  0  0  0  0  0  0  0  0999 V2000
    0.0000    0.0000    0.0000 N   0  0  0  0  0  0  0  0  0  0  0  0
    1.2124    0.7000    0.0000 C   0  0  0  0  0  0  0  0  0  0  0  0
    2.4249    0.0000    0.0000 N   0  0  0  0  0  0  0  0  0  0  0  0
    1.2124    2.1000    0.0000 O   0  0  0  0  0  0  0  0  0  0  0  0
  1  2  1  0  0  0  0
  2  3  1  0  0  0  0
  2  4  2  0  0  0  0
M  END
> <Molecule Name>
70

> <CDD Number>
CDD-713

> <Human_sEH_IC50_uM>
500.0

> <Mouse_sEH_IC50_uM>
500.0

$$$$

SketchEl molfile

 18 19  0  0  0  0  0  0  0  0999 V2000
    7.2746    0.7000    0.0000 C   0  0  0  0  0  0  0  0  0  0  0  0
    6.0622    0.0000    0.0000 N   0  0  0  0  0  0  0  0  0  0  0  0
    4.8497    0.7000    0.0000 C   0  0  0  0  0  0  0  0  0  0  0  0
    3.6373    0.0000    0.0000 N   0  0  0  0  0  0  0  0  0  0  0  0
    4.8497    2.1000    0.0000 O   0  0  0  0  0  0  0  0  0  0  0  0
    2.4249    0.7000    0.0000 C   0  0  0  0  0  0  0  0  0  0  0  0
    8.4870    0.0000    0.0000 C   0  0  0  0  0  0  0  0  0  0  0  0
    9.6995    0.7000    0.0000 C   0  0  0  0  0  0  0  0  0  0  0  0
    9.6995    2.1000    0.0000 C   0  0  0  0  0  0  0  0  0  0  0  0
    8.4870    2.8000    0.0000 C   0  0  0  0  0  0  0  0  0  0  0  0
    7.2746    2.1000    0.0000 C   0  0  0  0  0  0  0  0  0  0  0  0
    2.4249    2.1000    0.0000 C   0  0  0  0  0  0  0  0  0  0  0  0
    1.2124    2.8000    0.0000 C   0  0  0  0  0  0  0  0  0  0  0  0
    0.0000    2.1000    0.0000 C   0  0  0  0  0  0  0  0  0  0  0  0
    0.0000    0.7000    0.0000 C   0  0  0  0  0  0  0  0  0  0  0  0
    1.2124    0.0000    0.0000 C   0  0  0  0  0  0  0  0  0  0  0  0
   10.9119    2.8000    0.0000 O   0  0  0  0  0  0  0  0  0  0  0  0
   12.1244    2.1000    0.0000 C   0  0  0  0  0  0  0  0  0  0  0  0
  1  2  1  0  0  0  0
  2  3  1  0  0  0  0
  3  4  1  0  0  0  0
  3  5  2  0  0  0  0
  4  6  1  0  0  0  0
  1  7  2  0  0  0  0
  7  8  1  0  0  0  0
  8  9  2  0  0  0  0
  9 10  1  0  0  0  0
 10 11  2  0  0  0  0
 11  1  1  0  0  0  0
  6 12  1  0  0  0  0
 12 13  1  0  0  0  0
 13 14  1  0  0  0  0
 14 15  1  0  0  0  0
 15 16  1  0  0  0  0
 16  6  1  0  0  0  0
  9 17  1  0  0  0  0
 17 18  1  0  0  0  0
M  END
> <Molecule Name>
67

> <CDD Number>
CDD-15984

> <Human_sEH_IC50_uM>
0.23

> <Mouse_sEH_IC50_uM>
0.71

$$$$

SketchEl molfile

 19 20  0  0  0  0  0  0  0  0999 V2000
    7.2746    0.7000    0.0000 C   0  0  0  0  0  0  0  0  0  0  0  0
    6.0622    0.0000    0.0000 N   0  0  0  0  0  0  0  0  0  0  0  0
    4.8497    0.7000    0.0000 C   0  0  0  0  0  0  0  0  0  0  0  0
    3.6373    0.0000    0.0000 N   0  0  0  0  0  0  0  0  0  0  0  0
    4.8497    2.1000    0.0000 O   0  0  0  0  0  0  0  0  0  0  0  0
    2.4249    0.7000    0.0000 C   0  0  0  0  0  0  0  0  0  0  0  0
    2.4249    2.1000    0.0000 C   0  0  0  0  0  0  0  0  0  0  0  0
    1.2124    2.8000    0.0000 C   0  0  0  0  0  0  0  0  0  0  0  0
    0.0000    2.1000    0.0000 C   0  0  0  0  0  0  0  0  0  0  0  0
    0.0000    0.7000    0.0000 C   0  0  0  0  0  0  0  0  0  0  0  0
    1.2124    0.0000    0.0000 C   0  0  0  0  0  0  0  0  0  0  0  0
    8.4870    0.0000    0.0000 C   0  0  0  0  0  0  0  0  0  0  0  0
    9.6995    0.7000    0.0000 C   0  0  0  0  0  0  0  0  0  0  0  0
    9.6995    2.1000    0.0000 C   0  0  0  0  0  0  0  0  0  0  0  0
    8.4870    2.8000    0.0000 C   0  0  0  0  0  0  0  0  0  0  0  0
    7.2746    2.1000    0.0000 C   0  0  0  0  0  0  0  0  0  0  0  0
   10.9119    2.8000    0.0000 C   0  0  0  0  0  0  0  0  0  0  0  0
   10.9119    4.2000    0.0000 C   0  0  0  0  0  0  0  0  0  0  0  0
   12.1244    2.1000    0.0000 C   0  0  0  0  0  0  0  0  0  0  0  0
  1  2  1  0  0  0  0
  2  3  1  0  0  0  0
  3  4  1  0  0  0  0
  3  5  2  0  0  0  0
  4  6  1  0  0  0  0
  6  7  1  0  0  0  0
  7  8  1  0  0  0  0
  8  9  1  0  0  0  0
  9 10  1  0  0  0  0
 10 11  1  0  0  0  0
 11  6  1  0  0  0  0
  1 12  2  0  0  0  0
 12 13  1  0  0  0  0
 13 14  2  0  0  0  0
 14 15  1  0  0  0  0
 15 16  2  0  0  0  0
 16  1  1  0  0  0  0
 14 17  1  0  0  0  0
 17 18  1  0  0  0  0
 17 19  1  0  0  0  0
M  END
> <Molecule Name>
66

> <CDD Number>
CDD-15875

> <Human_sEH_IC50_uM>
0.07

> <Mouse_sEH_IC50_uM>
0.09

$$$$

SketchEl molfile

 17 18  0  0  0  0  0  0  0  0999 V2000
    7.2746    0.7000    0.0000 C   0  0  0  0  0  0  0  0  0  0  0  0
    6.0622    0.0000    0.0000 N   0  0  0  0  0  0  0  0  0  0  0  0
    4.8497    0.7000    0.0000 C   0  0  0  0  0  0  0  0  0  0  0  0
    3.6373    0.0000    0.0000 N   0  0  0  0  0  0  0  0  0  0  0  0
    4.8497    2.1000    0.0000 O   0  0  0  0  0  0  0  0  0  0  0  0
    2.4249    0.7000    0.0000 C   0  0  0  0  0  0  0  0  0  0  0  0
    2.4249    2.1000    0.0000 C   0  0  0  0  0  0  0  0  0  0  0  0
    1.2124    2.8000    0.0000 C   0  0  0  0  0  0  0  0  0  0  0  0
    0.0000    2.1000    0.0000 C   0  0  0  0  0  0  0  0  0  0  0  0
    0.0000    0.7000    0.0000 C   0  0  0  0  0  0  0  0  0  0  0  0
    1.2124    0.0000    0.0000 C   0  0  0  0  0  0  0  0  0  0  0  0
    8.4870    0.0000    0.0000 C   0  0  0  0  0  0  0  0  0  0  0  0
    9.6995    0.7000    0.0000 C   0  0  0  0  0  0  0  0  0  0  0  0
    9.6995    2.1000    0.0000 C   0  0  0  0  0  0  0  0  0  0  0  0
    8.4870    2.8000    0.0000 C   0  0  0  0  0  0  0  0  0  0  0  0
    7.2746    2.1000    0.0000 C   0  0  0  0  0  0  0  0  0  0  0  0
   10.9119    2.8000    0.0000 Br  0  0  0  0  0  0  0  0  0  0  0  0
  1  2  1  0  0  0  0
  2  3  1  0  0  0  0
  3  4  1  0  0  0  0
  3  5  2  0  0  0  0
  4  6  1  0  0  0  0
  6  7  1  0  0  0  0
  7  8  1  0  0  0  0
  8  9  1  0  0  0  0
  9 10  1  0  0  0  0
 10 11  1  0  0  0  0
 11  6  1  0  0  0  0
  1 12  2  0  0  0  0
 12 13  1  0  0  0  0
 13 14  2  0  0  0  0
 14 15  1  0  0  0  0
 15 16  2  0  0  0  0
 16  1  1  0  0  0  0
 14 17  1  0  0  0  0
M  END
> <Molecule Name>
65

> <CDD Number>
CDD-15885

> <Human_sEH_IC50_uM>
0.11

> <Mouse_sEH_IC50_uM>
0.17

$$$$

SketchEl molfile

 20 21  0  0  0  0  0  0  0  0999 V2000
    2.4249    3.0899    0.0000 C   0  0  0  0  0  0  0  0  0  0  0  0
    3.6373    2.3899    0.0000 N   0  0  0  0  0  0  0  0  0  0  0  0
    4.8497    3.0899    0.0000 C   0  0  0  0  0  0  0  0  0  0  0  0
    6.0622    2.3899    0.0000 N   0  0  0  0  0  0  0  0  0  0  0  0
    4.8497    4.4899    0.0000 O   0  0  0  0  0  0  0  0  0  0  0  0
    7.0521    2.9906    0.0000 C   0  0  0  0  0  0  0  0  0  0  0  0
    2.4249    4.4899    0.0000 C   0  0  0  0  0  0  0  0  0  0  0  0
    1.2124    5.1899    0.0000 C   0  0  0  0  0  0  0  0  0  0  0  0
    0.0000    4.4899    0.0000 C   0  0  0  0  0  0  0  0  0  0  0  0
    0.0000    3.0899    0.0000 C   0  0  0  0  0  0  0  0  0  0  0  0
    1.2124    2.3900    0.0000 C   0  0  0  0  0  0  0  0  0  0  0  0
    8.2646    2.2906    0.0000 C   0  0  0  0  0  0  0  0  0  0  0  0
    9.4770    2.9906    0.0000 C   0  0  0  0  0  0  0  0  0  0  0  0
    9.4770    4.3906    0.0000 C   0  0  0  0  0  0  0  0  0  0  0  0
    8.2646    5.0906    0.0000 C   0  0  0  0  0  0  0  0  0  0  0  0
    7.0521    4.3906    0.0000 C   0  0  0  0  0  0  0  0  0  0  0  0
    6.0622    0.9899    0.0000 C   0  0  0  0  0  0  0  0  0  0  0  0
    3.6373    0.9899    0.0000 C   0  0  0  0  0  0  0  0  0  0  0  0
    7.0521    0.0000    0.0000 C   0  0  0  0  0  0  0  0  0  0  0  0
    2.6474    0.0000    0.0000 C   0  0  0  0  0  0  0  0  0  0  0  0
  1  2  1  0  0  0  0
  2  3  1  0  0  0  0
  3  4  1  0  0  0  0
  3  5  2  0  0  0  0
  4  6  1  0  0  0  0
  1  7  2  0  0  0  0
  7  8  1  0  0  0  0
  8  9  2  0  0  0  0
  9 10  1  0  0  0  0
 10 11  2  0  0  0  0
 11  1  1  0  0  0  0
  6 12  2  0  0  0  0
 12 13  1  0  0  0  0
 13 14  2  0  0  0  0
 14 15  1  0  0  0  0
 15 16  2  0  0  0  0
 16  6  1  0  0  0  0
  4 17  1  0  0  0  0
  2 18  1  0  0  0  0
 17 19  1  0  0  0  0
 18 20  1  0  0  0  0
M  END
> <Molecule Name>
64

> <CDD Number>
CDD-16006

> <Human_sEH_IC50_uM>
500.0

> <Mouse_sEH_IC50_uM>
500.0

$$$$

SketchEl molfile

 18 19  0  0  0  0  0  0  0  0999 V2000
    2.4249    2.1000    0.0000 C   0  0  0  0  0  0  0  0  0  0  0  0
    3.6373    1.4000    0.0000 N   0  0  0  0  0  0  0  0  0  0  0  0
    4.8497    2.1000    0.0000 C   0  0  0  0  0  0  0  0  0  0  0  0
    6.0622    1.4000    0.0000 N   0  0  0  0  0  0  0  0  0  0  0  0
    4.8497    3.5000    0.0000 O   0  0  0  0  0  0  0  0  0  0  0  0
    7.0521    2.0007    0.0000 C   0  0  0  0  0  0  0  0  0  0  0  0
    2.4249    3.5000    0.0000 C   0  0  0  0  0  0  0  0  0  0  0  0
    1.2124    4.2000    0.0000 C   0  0  0  0  0  0  0  0  0  0  0  0
    0.0000    3.5000    0.0000 C   0  0  0  0  0  0  0  0  0  0  0  0
    0.0000    2.1000    0.0000 C   0  0  0  0  0  0  0  0  0  0  0  0
    1.2124    1.4000    0.0000 C   0  0  0  0  0  0  0  0  0  0  0  0
    8.2646    1.3007    0.0000 C   0  0  0  0  0  0  0  0  0  0  0  0
    9.4770    2.0007    0.0000 C   0  0  0  0  0  0  0  0  0  0  0  0
    9.4770    3.4007    0.0000 C   0  0  0  0  0  0  0  0  0  0  0  0
    8.2646    4.1007    0.0000 C   0  0  0  0  0  0  0  0  0  0  0  0
    7.0521    3.4007    0.0000 C   0  0  0  0  0  0  0  0  0  0  0  0
    6.0622    0.0000    0.0000 C   0  0  0  0  0  0  0  0  0  0  0  0
    3.6373    0.0000    0.0000 C   0  0  0  0  0  0  0  0  0  0  0  0
  1  2  1  0  0  0  0
  2  3  1  0  0  0  0
  3  4  1  0  0  0  0
  3  5  2  0  0  0  0
  4  6  1  0  0  0  0
  1  7  2  0  0  0  0
  7  8  1  0  0  0  0
  8  9  2  0  0  0  0
  9 10  1  0  0  0  0
 10 11  2  0  0  0  0
 11  1  1  0  0  0  0
  6 12  2  0  0  0  0
 12 13  1  0  0  0  0
 13 14  2  0  0  0  0
 14 15  1  0  0  0  0
 15 16  2  0  0  0  0
 16  6  1  0  0  0  0
  4 17  1  0  0  0  0
  2 18  1  0  0  0  0
M  END
> <Molecule Name>
63

> <CDD Number>
CDD-16005

> <Human_sEH_IC50_uM>
500.0

> <Mouse_sEH_IC50_uM>
500.0

$$$$

SketchEl molfile

 10 10  0  0  0  0  0  0  0  0999 V2000
    0.0000    2.1000    0.0000 C   0  0  0  0  0  0  0  0  0  0  0  0
    0.0000    0.7000    0.0000 C   0  0  0  0  0  0  0  0  0  0  0  0
    1.2124    0.0000    0.0000 C   0  0  0  0  0  0  0  0  0  0  0  0
    2.4249    0.7000    0.0000 C   0  0  0  0  0  0  0  0  0  0  0  0
    2.4249    2.1000    0.0000 C   0  0  0  0  0  0  0  0  0  0  0  0
    1.2124    2.8000    0.0000 C   0  0  0  0  0  0  0  0  0  0  0  0
    3.6373    0.0000    0.0000 N   0  0  0  0  0  0  0  0  0  0  0  0
    4.8497    0.7000    0.0000 C   0  0  0  0  0  0  0  0  0  0  0  0
    6.0622    0.0000    0.0000 H   0  0  0  0  0  0  0  0  0  0  0  0
    4.8497    2.1000    0.0000 O   0  0  0  0  0  0  0  0  0  0  0  0
  1  2  1  0  0  0  0
  2  3  1  0  0  0  0
  3  4  1  0  0  0  0
  4  5  1  0  0  0  0
  5  6  1  0  0  0  0
  6  1  1  0  0  0  0
  4  7  1  0  0  0  0
  7  8  1  0  0  0  0
  8  9  1  0  0  0  0
  8 10  2  0  0  0  0
M  END
> <Molecule Name>
62

> <CDD Number>
CDD-5131

> <Human_sEH_IC50_uM>
500.0

> <Mouse_sEH_IC50_uM>
500.0

$$$$

SketchEl molfile

 10 10  0  0  0  0  0  0  0  0999 V2000
    0.0000    2.1993    0.0000 C   0  0  0  0  0  0  0  0  0  0  0  0
    0.0000    0.7993    0.0000 C   0  0  0  0  0  0  0  0  0  0  0  0
    1.2124    0.0993    0.0000 C   0  0  0  0  0  0  0  0  0  0  0  0
    2.4249    0.7993    0.0000 C   0  0  0  0  0  0  0  0  0  0  0  0
    2.4249    2.1993    0.0000 C   0  0  0  0  0  0  0  0  0  0  0  0
    1.2124    2.8993    0.0000 C   0  0  0  0  0  0  0  0  0  0  0  0
    3.6373    0.0993    0.0000 N   0  0  0  0  0  0  0  0  0  0  0  0
    4.6273    0.7000    0.0000 C   0  0  0  0  0  0  0  0  0  0  0  0
    5.8397    0.0000    0.0000 N   0  0  0  0  0  0  0  0  0  0  0  0
    4.6273    2.1000    0.0000 S   0  0  0  0  0  0  0  0  0  0  0  0
  1  2  2  0  0  0  0
  2  3  1  0  0  0  0
  3  4  2  0  0  0  0
  4  5  1  0  0  0  0
  5  6  2  0  0  0  0
  6  1  1  0  0  0  0
  4  7  1  0  0  0  0
  7  8  1  0  0  0  0
  8  9  1  0  0  0  0
  8 10  2  0  0  0  0
M  END
> <Molecule Name>
61

> <CDD Number>
CDD-7469

> <Human_sEH_IC50_uM>
500.0

> <Mouse_sEH_IC50_uM>
500.0

$$$$

SketchEl molfile

 17 18  0  0  0  0  0  0  0  0999 V2000
    7.2746    0.7000    0.0000 C   0  0  0  0  0  0  0  0  0  0  0  0
    6.0622    0.0000    0.0000 N   0  0  0  0  0  0  0  0  0  0  0  0
    4.8497    0.7000    0.0000 C   0  0  0  0  0  0  0  0  0  0  0  0
    3.6373    0.0000    0.0000 N   0  0  0  0  0  0  0  0  0  0  0  0
    4.8497    2.1000    0.0000 O   0  0  0  0  0  0  0  0  0  0  0  0
    2.4249    0.7000    0.0000 C   0  0  0  0  0  0  0  0  0  0  0  0
    2.4249    2.1000    0.0000 C   0  0  0  0  0  0  0  0  0  0  0  0
    1.2124    2.8000    0.0000 C   0  0  0  0  0  0  0  0  0  0  0  0
    0.0000    2.1000    0.0000 C   0  0  0  0  0  0  0  0  0  0  0  0
    0.0000    0.7000    0.0000 C   0  0  0  0  0  0  0  0  0  0  0  0
    1.2124    0.0000    0.0000 C   0  0  0  0  0  0  0  0  0  0  0  0
    8.4870    0.0000    0.0000 C   0  0  0  0  0  0  0  0  0  0  0  0
    9.6995    0.7000    0.0000 C   0  0  0  0  0  0  0  0  0  0  0  0
    9.6995    2.1000    0.0000 C   0  0  0  0  0  0  0  0  0  0  0  0
    8.4870    2.8000    0.0000 C   0  0  0  0  0  0  0  0  0  0  0  0
    7.2746    2.1000    0.0000 C   0  0  0  0  0  0  0  0  0  0  0  0
   10.9119    2.8000    0.0000 F   0  0  0  0  0  0  0  0  0  0  0  0
  1  2  1  0  0  0  0
  2  3  1  0  0  0  0
  3  4  1  0  0  0  0
  3  5  2  0  0  0  0
  4  6  1  0  0  0  0
  6  7  1  0  0  0  0
  7  8  1  0  0  0  0
  8  9  1  0  0  0  0
  9 10  1  0  0  0  0
 10 11  1  0  0  0  0
 11  6  1  0  0  0  0
  1 12  2  0  0  0  0
 12 13  1  0  0  0  0
 13 14  2  0  0  0  0
 14 15  1  0  0  0  0
 15 16  2  0  0  0  0
 16  1  1  0  0  0  0
 14 17  1  0  0  0  0
M  END
> <Molecule Name>
60

> <CDD Number>
CDD-15879

> <Human_sEH_IC50_uM>
0.43

> <Mouse_sEH_IC50_uM>
0.78

$$$$

SketchEl molfile

 20 22  0  0  0  0  0  0  0  0999 V2000
    7.2746    2.8000    0.0000 C   0  0  0  0  0  0  0  0  0  0  0  0
    6.0622    2.1000    0.0000 N   0  0  0  0  0  0  0  0  0  0  0  0
    4.8497    2.8000    0.0000 C   0  0  0  0  0  0  0  0  0  0  0  0
    3.6373    2.1000    0.0000 N   0  0  0  0  0  0  0  0  0  0  0  0
    4.8497    4.2000    0.0000 O   0  0  0  0  0  0  0  0  0  0  0  0
    2.4249    2.8000    0.0000 C   0  0  0  0  0  0  0  0  0  0  0  0
    2.4249    4.2000    0.0000 C   0  0  0  0  0  0  0  0  0  0  0  0
    1.2124    4.9000    0.0000 C   0  0  0  0  0  0  0  0  0  0  0  0
    0.0000    4.2000    0.0000 C   0  0  0  0  0  0  0  0  0  0  0  0
    0.0000    2.8000    0.0000 C   0  0  0  0  0  0  0  0  0  0  0  0
    1.2124    2.1000    0.0000 C   0  0  0  0  0  0  0  0  0  0  0  0
    8.4870    2.1000    0.0000 C   0  0  0  0  0  0  0  0  0  0  0  0
    9.6995    2.8000    0.0000 C   0  0  0  0  0  0  0  0  0  0  0  0
    9.6995    4.2000    0.0000 C   0  0  0  0  0  0  0  0  0  0  0  0
    8.4870    4.9000    0.0000 C   0  0  0  0  0  0  0  0  0  0  0  0
    7.2746    4.2000    0.0000 C   0  0  0  0  0  0  0  0  0  0  0  0
    8.4870    0.7000    0.0000 C   0  0  0  0  0  0  0  0  0  0  0  0
    9.6995    0.0000    0.0000 C   0  0  0  0  0  0  0  0  0  0  0  0
   10.9119    0.7000    0.0000 C   0  0  0  0  0  0  0  0  0  0  0  0
   10.9119    2.1000    0.0000 C   0  0  0  0  0  0  0  0  0  0  0  0
  1  2  1  0  0  0  0
  2  3  1  0  0  0  0
  3  4  1  0  0  0  0
  3  5  2  0  0  0  0
  4  6  1  0  0  0  0
  6  7  1  0  0  0  0
  7  8  1  0  0  0  0
  8  9  1  0  0  0  0
  9 10  1  0  0  0  0
 10 11  1  0  0  0  0
 11  6  1  0  0  0  0
  1 12  2  0  0  0  0
 12 13  1  0  0  0  0
 13 14  2  0  0  0  0
 14 15  1  0  0  0  0
 15 16  2  0  0  0  0
 16  1  1  0  0  0  0
 12 17  1  0  0  0  0
 17 18  2  0  0  0  0
 18 19  1  0  0  0  0
 19 20  2  0  0  0  0
 20 13  1  0  0  0  0
M  END
> <Molecule Name>
59

> <CDD Number>
CDD-15973

> <Human_sEH_IC50_uM>
0.48

> <Mouse_sEH_IC50_uM>
0.85

$$$$

SketchEl molfile

 18 19  0  0  0  0  0  0  0  0999 V2000
    0.0000    2.4893    0.0000 C   0  0  0  0  0  0  0  0  0  0  0  0
    0.0000    1.0893    0.0000 C   0  0  0  0  0  0  0  0  0  0  0  0
    1.2124    0.3893    0.0000 C   0  0  0  0  0  0  0  0  0  0  0  0
    2.4249    1.0893    0.0000 C   0  0  0  0  0  0  0  0  0  0  0  0
    2.4249    2.4893    0.0000 C   0  0  0  0  0  0  0  0  0  0  0  0
    1.2124    3.1893    0.0000 C   0  0  0  0  0  0  0  0  0  0  0  0
    3.6373    0.3893    0.0000 N   0  0  0  0  0  0  0  0  0  0  0  0
    4.8497    1.0893    0.0000 C   0  0  0  0  0  0  0  0  0  0  0  0
    6.0622    0.3893    0.0000 N   0  0  0  0  0  0  0  0  0  0  0  0
    4.8497    2.4893    0.0000 O   0  0  0  0  0  0  0  0  0  0  0  0
    7.0521    0.9899    0.0000 C   0  0  0  0  0  0  0  0  0  0  0  0
    8.0421    0.0000    0.0000 C   0  0  0  0  0  0  0  0  0  0  0  0
    9.4421    0.0000    0.0000 C   0  0  0  0  0  0  0  0  0  0  0  0
   10.4320    0.9899    0.0000 C   0  0  0  0  0  0  0  0  0  0  0  0
   10.4320    2.3899    0.0000 C   0  0  0  0  0  0  0  0  0  0  0  0
    9.4421    3.3799    0.0000 C   0  0  0  0  0  0  0  0  0  0  0  0
    8.0421    3.3799    0.0000 C   0  0  0  0  0  0  0  0  0  0  0  0
    7.0521    2.3899    0.0000 C   0  0  0  0  0  0  0  0  0  0  0  0
  1  2  1  0  0  0  0
  2  3  1  0  0  0  0
  3  4  1  0  0  0  0
  4  5  1  0  0  0  0
  5  6  1  0  0  0  0
  6  1  1  0  0  0  0
  4  7  1  0  0  0  0
  7  8  1  0  0  0  0
  8  9  1  0  0  0  0
  8 10  2  0  0  0  0
  9 11  1  0  0  0  0
 11 12  1  0  0  0  0
 12 13  1  0  0  0  0
 13 14  1  0  0  0  0
 14 15  1  0  0  0  0
 15 16  1  0  0  0  0
 16 17  1  0  0  0  0
 17 18  1  0  0  0  0
 18 11  1  0  0  0  0
M  END
> <Molecule Name>
58

> <CDD Number>
CDD-15952

> <Human_sEH_IC50_uM>
0.09

> <Mouse_sEH_IC50_uM>
0.05

$$$$

SketchEl molfile

 17 18  0  0  0  0  0  0  0  0999 V2000
    0.0000    2.9721    0.0000 C   0  0  0  0  0  0  0  0  0  0  0  0
    1.2124    2.2721    0.0000 C   0  0  0  0  0  0  0  0  0  0  0  0
    2.4249    2.9721    0.0000 C   0  0  0  0  0  0  0  0  0  0  0  0
    2.4249    4.3721    0.0000 C   0  0  0  0  0  0  0  0  0  0  0  0
    1.2124    5.0721    0.0000 C   0  0  0  0  0  0  0  0  0  0  0  0
    0.0000    4.3721    0.0000 C   0  0  0  0  0  0  0  0  0  0  0  0
    3.6373    2.2721    0.0000 N   0  0  0  0  0  0  0  0  0  0  0  0
    4.6273    2.8728    0.0000 C   0  0  0  0  0  0  0  0  0  0  0  0
    5.8397    2.1728    0.0000 N   0  0  0  0  0  0  0  0  0  0  0  0
    4.6273    4.2728    0.0000 O   0  0  0  0  0  0  0  0  0  0  0  0
    6.8296    2.7734    0.0000 C   0  0  0  0  0  0  0  0  0  0  0  0
    8.0570    2.1000    0.0000 C   0  0  0  0  0  0  0  0  0  0  0  0
    8.0570    0.7000    0.0000 C   0  0  0  0  0  0  0  0  0  0  0  0
    9.2695    0.0000    0.0000 C   0  0  0  0  0  0  0  0  0  0  0  0
   10.4819    0.7000    0.0000 C   0  0  0  0  0  0  0  0  0  0  0  0
   10.4819    2.1000    0.0000 C   0  0  0  0  0  0  0  0  0  0  0  0
    9.2695    2.8000    0.0000 C   0  0  0  0  0  0  0  0  0  0  0  0
  1  2  1  0  0  0  0
  2  3  1  0  0  0  0
  3  4  1  0  0  0  0
  4  5  1  0  0  0  0
  5  6  1  0  0  0  0
  6  1  1  0  0  0  0
  3  7  1  0  0  0  0
  7  8  1  0  0  0  0
  8  9  1  0  0  0  0
  8 10  2  0  0  0  0
  9 11  1  0  0  0  0
 11 12  1  0  0  0  0
 12 13  1  0  0  0  0
 13 14  1  0  0  0  0
 14 15  1  0  0  0  0
 15 16  1  0  0  0  0
 16 17  1  0  0  0  0
 17 12  1  0  0  0  0
M  END
> <Molecule Name>
57

> <CDD Number>
CDD-15943

> <Human_sEH_IC50_uM>
0.16

> <Mouse_sEH_IC50_uM>
0.06

$$$$

SketchEl molfile

 18 18  0  0  0  0  0  0  0  0999 V2000
    0.0000    1.5987    0.0000 C   0  0  0  0  0  0  0  0  0  0  0  0
    1.2124    0.8987    0.0000 C   0  0  0  0  0  0  0  0  0  0  0  0
    2.4249    1.5987    0.0000 C   0  0  0  0  0  0  0  0  0  0  0  0
    2.4249    2.9987    0.0000 C   0  0  0  0  0  0  0  0  0  0  0  0
    1.2124    3.6987    0.0000 C   0  0  0  0  0  0  0  0  0  0  0  0
    0.0000    2.9987    0.0000 C   0  0  0  0  0  0  0  0  0  0  0  0
    3.6373    0.8987    0.0000 N   0  0  0  0  0  0  0  0  0  0  0  0
    4.6273    1.4993    0.0000 C   0  0  0  0  0  0  0  0  0  0  0  0
    5.8397    0.7993    0.0000 N   0  0  0  0  0  0  0  0  0  0  0  0
    4.6273    2.8993    0.0000 O   0  0  0  0  0  0  0  0  0  0  0  0
    6.8296    1.4000    0.0000 C   0  0  0  0  0  0  0  0  0  0  0  0
    8.0421    0.7000    0.0000 C   0  0  0  0  0  0  0  0  0  0  0  0
    9.2545    1.4000    0.0000 C   0  0  0  0  0  0  0  0  0  0  0  0
   10.4669    0.7000    0.0000 C   0  0  0  0  0  0  0  0  0  0  0  0
   11.6794    1.4000    0.0000 C   0  0  0  0  0  0  0  0  0  0  0  0
   12.8918    0.7000    0.0000 C   0  0  0  0  0  0  0  0  0  0  0  0
   13.8818    1.6899    0.0000 O   0  0  0  0  0  0  0  0  0  0  0  0
   14.1043    0.0000    0.0000 O   0  0  0  0  0  0  0  0  0  0  0  0
  1  2  1  0  0  0  0
  2  3  1  0  0  0  0
  3  4  1  0  0  0  0
  4  5  1  0  0  0  0
  5  6  1  0  0  0  0
  6  1  1  0  0  0  0
  3  7  1  0  0  0  0
  7  8  1  0  0  0  0
  8  9  1  0  0  0  0
  8 10  2  0  0  0  0
  9 11  1  0  0  0  0
 11 12  1  0  0  0  0
 12 13  1  0  0  0  0
 13 14  1  0  0  0  0
 14 15  1  0  0  0  0
 15 16  1  0  0  0  0
 16 17  2  0  0  0  0
 16 18  1  0  0  0  0
M  END
> <Molecule Name>
56

> <CDD Number>
CDD-15920

> <Human_sEH_IC50_uM>
253.0

> <Mouse_sEH_IC50_uM>
90.0

$$$$

SketchEl molfile

 15 16  0  0  0  0  0  0  0  0999 V2000
    0.0000    2.8000    0.0000 C   0  0  0  0  0  0  0  0  0  0  0  0
    1.2124    2.1000    0.0000 C   0  0  0  0  0  0  0  0  0  0  0  0
    2.4249    2.8000    0.0000 C   0  0  0  0  0  0  0  0  0  0  0  0
    2.4249    4.2000    0.0000 C   0  0  0  0  0  0  0  0  0  0  0  0
    1.2124    4.9000    0.0000 C   0  0  0  0  0  0  0  0  0  0  0  0
    0.0000    4.2000    0.0000 C   0  0  0  0  0  0  0  0  0  0  0  0
    3.6373    2.1000    0.0000 N   0  0  0  0  0  0  0  0  0  0  0  0
    4.8497    2.8000    0.0000 C   0  0  0  0  0  0  0  0  0  0  0  0
    6.0622    2.1000    0.0000 N   0  0  0  0  0  0  0  0  0  0  0  0
    4.8497    4.2000    0.0000 O   0  0  0  0  0  0  0  0  0  0  0  0
    6.0622    0.7000    0.0000 C   0  0  0  0  0  0  0  0  0  0  0  0
    7.2746    0.0000    0.0000 C   0  0  0  0  0  0  0  0  0  0  0  0
    8.4870    0.7000    0.0000 S   0  0  0  0  0  0  0  0  0  0  0  0
    8.4870    2.1000    0.0000 C   0  0  0  0  0  0  0  0  0  0  0  0
    7.2746    2.8000    0.0000 C   0  0  0  0  0  0  0  0  0  0  0  0
  1  2  1  0  0  0  0
  2  3  1  0  0  0  0
  3  4  1  0  0  0  0
  4  5  1  0  0  0  0
  5  6  1  0  0  0  0
  6  1  1  0  0  0  0
  3  7  1  0  0  0  0
  7  8  1  0  0  0  0
  8  9  1  0  0  0  0
  8 10  2  0  0  0  0
  9 11  1  0  0  0  0
 11 12  1  0  0  0  0
 12 13  1  0  0  0  0
 13 14  1  0  0  0  0
 14 15  1  0  0  0  0
 15  9  1  0  0  0  0
M  END
> <Molecule Name>
55

> <CDD Number>
CDD-15935

> <Human_sEH_IC50_uM>
21.3

> <Mouse_sEH_IC50_uM>
23.3

$$$$

SketchEl molfile

 17 18  0  0  0  0  0  0  0  0999 V2000
    1.2124    2.8000    0.0000 C   0  0  0  0  0  0  0  0  0  0  0  0
    0.0000    2.1000    0.0000 C   0  0  0  0  0  0  0  0  0  0  0  0
    0.0000    0.7000    0.0000 C   0  0  0  0  0  0  0  0  0  0  0  0
    1.2124    0.0000    0.0000 C   0  0  0  0  0  0  0  0  0  0  0  0
    2.4249    0.7000    0.0000 C   0  0  0  0  0  0  0  0  0  0  0  0
    2.4249    2.1000    0.0000 C   0  0  0  0  0  0  0  0  0  0  0  0
    3.6373    0.0000    0.0000 N   0  0  0  0  0  0  0  0  0  0  0  0
    4.8497    0.7000    0.0000 C   0  0  0  0  0  0  0  0  0  0  0  0
    6.0622    0.0000    0.0000 S   0  0  0  0  0  0  0  0  0  0  0  0
    4.8497    2.1000    0.0000 O   0  0  0  0  0  0  0  0  0  0  0  0
    7.2746    0.7000    0.0000 C   0  0  0  0  0  0  0  0  0  0  0  0
    8.4870    0.0000    0.0000 C   0  0  0  0  0  0  0  0  0  0  0  0
    9.6995    0.7000    0.0000 C   0  0  0  0  0  0  0  0  0  0  0  0
    9.6995    2.1000    0.0000 C   0  0  0  0  0  0  0  0  0  0  0  0
    8.4870    2.8000    0.0000 C   0  0  0  0  0  0  0  0  0  0  0  0
    7.2746    2.1000    0.0000 C   0  0  0  0  0  0  0  0  0  0  0  0
   10.9119    2.8000    0.0000 Cl  0  0  0  0  0  0  0  0  0  0  0  0
  1  2  1  0  0  0  0
  2  3  1  0  0  0  0
  3  4  1  0  0  0  0
  4  5  1  0  0  0  0
  5  6  1  0  0  0  0
  6  1  1  0  0  0  0
  5  7  1  0  0  0  0
  7  8  1  0  0  0  0
  8  9  1  0  0  0  0
  8 10  2  0  0  0  0
  9 11  1  0  0  0  0
 11 12  2  0  0  0  0
 12 13  1  0  0  0  0
 13 14  2  0  0  0  0
 14 15  1  0  0  0  0
 15 16  2  0  0  0  0
 16 11  1  0  0  0  0
 14 17  1  0  0  0  0
M  END
> <Molecule Name>
54

> <CDD Number>
CDD-16174

> <Human_sEH_IC50_uM>
12.3

> <Mouse_sEH_IC50_uM>
20.0

$$$$

SketchEl molfile

 17 18  0  0  0  0  0  0  0  0999 V2000
    7.2746    0.7000    0.0000 C   0  0  0  0  0  0  0  0  0  0  0  0
    6.0622    0.0000    0.0000 N   0  0  0  0  0  0  0  0  0  0  0  0
    4.8497    0.7000    0.0000 C   0  0  0  0  0  0  0  0  0  0  0  0
    3.6373    0.0000    0.0000 N   0  0  0  0  0  0  0  0  0  0  0  0
    4.8497    2.1000    0.0000 O   0  0  0  0  0  0  0  0  0  0  0  0
    2.4249    0.7000    0.0000 C   0  0  0  0  0  0  0  0  0  0  0  0
    2.4249    2.1000    0.0000 C   0  0  0  0  0  0  0  0  0  0  0  0
    1.2124    2.8000    0.0000 C   0  0  0  0  0  0  0  0  0  0  0  0
    0.0000    2.1000    0.0000 C   0  0  0  0  0  0  0  0  0  0  0  0
    0.0000    0.7000    0.0000 C   0  0  0  0  0  0  0  0  0  0  0  0
    1.2124    0.0000    0.0000 C   0  0  0  0  0  0  0  0  0  0  0  0
    8.4870    0.0000    0.0000 C   0  0  0  0  0  0  0  0  0  0  0  0
    9.6995    0.7000    0.0000 C   0  0  0  0  0  0  0  0  0  0  0  0
    9.6995    2.1000    0.0000 C   0  0  0  0  0  0  0  0  0  0  0  0
    8.4870    2.8000    0.0000 C   0  0  0  0  0  0  0  0  0  0  0  0
    7.2746    2.1000    0.0000 C   0  0  0  0  0  0  0  0  0  0  0  0
   10.9119    2.8000    0.0000 I   0  0  0  0  0  0  0  0  0  0  0  0
  1  2  1  0  0  0  0
  2  3  1  0  0  0  0
  3  4  1  0  0  0  0
  3  5  2  0  0  0  0
  4  6  1  0  0  0  0
  6  7  1  0  0  0  0
  7  8  1  0  0  0  0
  8  9  1  0  0  0  0
  9 10  1  0  0  0  0
 10 11  1  0  0  0  0
 11  6  1  0  0  0  0
  1 12  2  0  0  0  0
 12 13  1  0  0  0  0
 13 14  2  0  0  0  0
 14 15  1  0  0  0  0
 15 16  2  0  0  0  0
 16  1  1  0  0  0  0
 14 17  1  0  0  0  0
M  END
> <Molecule Name>
53

> <CDD Number>
CDD-15886

> <Human_sEH_IC50_uM>
0.12

> <Mouse_sEH_IC50_uM>
0.07

$$$$

SketchEl molfile

 14 14  0  0  0  0  0  0  0  0999 V2000
    0.0000    0.8987    0.0000 C   0  0  0  0  0  0  0  0  0  0  0  0
    1.2124    0.1987    0.0000 C   0  0  0  0  0  0  0  0  0  0  0  0
    2.4249    0.8987    0.0000 C   0  0  0  0  0  0  0  0  0  0  0  0
    2.4249    2.2987    0.0000 C   0  0  0  0  0  0  0  0  0  0  0  0
    1.2124    2.9987    0.0000 C   0  0  0  0  0  0  0  0  0  0  0  0
    0.0000    2.2987    0.0000 C   0  0  0  0  0  0  0  0  0  0  0  0
    3.6373    0.1987    0.0000 N   0  0  0  0  0  0  0  0  0  0  0  0
    4.6273    0.7993    0.0000 C   0  0  0  0  0  0  0  0  0  0  0  0
    5.8397    0.0993    0.0000 N   0  0  0  0  0  0  0  0  0  0  0  0
    4.6273    2.1993    0.0000 O   0  0  0  0  0  0  0  0  0  0  0  0
    6.8296    0.7000    0.0000 C   0  0  0  0  0  0  0  0  0  0  0  0
    8.0421    0.0000    0.0000 C   0  0  0  0  0  0  0  0  0  0  0  0
    9.2545    0.7000    0.0000 O   0  0  0  0  0  0  0  0  0  0  0  0
   10.4669    0.0000    0.0000 C   0  0  0  0  0  0  0  0  0  0  0  0
  1  2  1  0  0  0  0
  2  3  1  0  0  0  0
  3  4  1  0  0  0  0
  4  5  1  0  0  0  0
  5  6  1  0  0  0  0
  6  1  1  0  0  0  0
  3  7  1  0  0  0  0
  7  8  1  0  0  0  0
  8  9  1  0  0  0  0
  8 10  2  0  0  0  0
  9 11  1  0  0  0  0
 11 12  1  0  0  0  0
 12 13  1  0  0  0  0
 13 14  1  0  0  0  0
M  END
> <Molecule Name>
52

> <CDD Number>
CDD-15906

> <Human_sEH_IC50_uM>
282.0

> <Mouse_sEH_IC50_uM>
134.0

$$$$

SketchEl molfile

 17 18  0  0  0  0  0  0  0  0999 V2000
    7.2746    0.7000    0.0000 C   0  0  0  0  0  0  0  0  0  0  0  0
    6.0622    0.0000    0.0000 N   0  0  0  0  0  0  0  0  0  0  0  0
    4.8497    0.7000    0.0000 C   0  0  0  0  0  0  0  0  0  0  0  0
    3.6373    0.0000    0.0000 N   0  0  0  0  0  0  0  0  0  0  0  0
    4.8497    2.1000    0.0000 O   0  0  0  0  0  0  0  0  0  0  0  0
    2.4249    0.7000    0.0000 C   0  0  0  0  0  0  0  0  0  0  0  0
    2.4249    2.1000    0.0000 C   0  0  0  0  0  0  0  0  0  0  0  0
    1.2124    2.8000    0.0000 C   0  0  0  0  0  0  0  0  0  0  0  0
    0.0000    2.1000    0.0000 C   0  0  0  0  0  0  0  0  0  0  0  0
    0.0000    0.7000    0.0000 C   0  0  0  0  0  0  0  0  0  0  0  0
    1.2124    0.0000    0.0000 C   0  0  0  0  0  0  0  0  0  0  0  0
    8.4870    0.0000    0.0000 C   0  0  0  0  0  0  0  0  0  0  0  0
    9.6995    0.7000    0.0000 C   0  0  0  0  0  0  0  0  0  0  0  0
    9.6995    2.1000    0.0000 C   0  0  0  0  0  0  0  0  0  0  0  0
    8.4870    2.8000    0.0000 C   0  0  0  0  0  0  0  0  0  0  0  0
    7.2746    2.1000    0.0000 C   0  0  0  0  0  0  0  0  0  0  0  0
   10.9119    0.0000    0.0000 Cl  0  0  0  0  0  0  0  0  0  0  0  0
  1  2  1  0  0  0  0
  2  3  1  0  0  0  0
  3  4  1  0  0  0  0
  3  5  2  0  0  0  0
  4  6  1  0  0  0  0
  6  7  1  0  0  0  0
  7  8  1  0  0  0  0
  8  9  1  0  0  0  0
  9 10  1  0  0  0  0
 10 11  1  0  0  0  0
 11  6  1  0  0  0  0
  1 12  2  0  0  0  0
 12 13  1  0  0  0  0
 13 14  2  0  0  0  0
 14 15  1  0  0  0  0
 15 16  2  0  0  0  0
 16  1  1  0  0  0  0
 13 17  1  0  0  0  0
M  END
> <Molecule Name>
44

> <CDD Number>
CDD-15883

> <Human_sEH_IC50_uM>
0.19

> <Mouse_sEH_IC50_uM>
0.07

$$$$

SketchEl molfile

 12 12  0  0  0  0  0  0  0  0999 V2000
    0.0000    0.8721    0.0000 C   0  0  0  0  0  0  0  0  0  0  0  0
    1.2124    0.1721    0.0000 C   0  0  0  0  0  0  0  0  0  0  0  0
    2.4249    0.8721    0.0000 C   0  0  0  0  0  0  0  0  0  0  0  0
    2.4249    2.2721    0.0000 C   0  0  0  0  0  0  0  0  0  0  0  0
    1.2124    2.9721    0.0000 C   0  0  0  0  0  0  0  0  0  0  0  0
    0.0000    2.2721    0.0000 C   0  0  0  0  0  0  0  0  0  0  0  0
    3.6373    0.1721    0.0000 N   0  0  0  0  0  0  0  0  0  0  0  0
    4.6273    0.7728    0.0000 C   0  0  0  0  0  0  0  0  0  0  0  0
    5.8397    0.0728    0.0000 N   0  0  0  0  0  0  0  0  0  0  0  0
    4.6273    2.1728    0.0000 O   0  0  0  0  0  0  0  0  0  0  0  0
    6.8296    0.6734    0.0000 C   0  0  0  0  0  0  0  0  0  0  0  0
    8.0570    0.0000    0.0000 C   0  0  0  0  0  0  0  0  0  0  0  0
  1  2  1  0  0  0  0
  2  3  1  0  0  0  0
  3  4  1  0  0  0  0
  4  5  1  0  0  0  0
  5  6  1  0  0  0  0
  6  1  1  0  0  0  0
  3  7  1  0  0  0  0
  7  8  1  0  0  0  0
  8  9  1  0  0  0  0
  8 10  2  0  0  0  0
  9 11  1  0  0  0  0
 11 12  1  0  0  0  0
M  END
> <Molecule Name>
43

> <CDD Number>
CDD-15869

> <Human_sEH_IC50_uM>
42.0

> <Mouse_sEH_IC50_uM>
51.7

$$$$

SketchEl molfile

 16 17  0  0  0  0  0  0  0  0999 V2000
    0.0000    0.7000    0.0000 C   0  0  0  0  0  0  0  0  0  0  0  0
    1.2124    0.0000    0.0000 C   0  0  0  0  0  0  0  0  0  0  0  0
    2.4249    0.7000    0.0000 C   0  0  0  0  0  0  0  0  0  0  0  0
    2.4249    2.1000    0.0000 C   0  0  0  0  0  0  0  0  0  0  0  0
    1.2124    2.8000    0.0000 C   0  0  0  0  0  0  0  0  0  0  0  0
    0.0000    2.1000    0.0000 C   0  0  0  0  0  0  0  0  0  0  0  0
    3.6373    0.0000    0.0000 N   0  0  0  0  0  0  0  0  0  0  0  0
    4.8497    0.7000    0.0000 C   0  0  0  0  0  0  0  0  0  0  0  0
    6.0622    0.0000    0.0000 O   0  0  0  0  0  0  0  0  0  0  0  0
    4.8497    2.1000    0.0000 O   0  0  0  0  0  0  0  0  0  0  0  0
    7.2746    0.7000    0.0000 C   0  0  0  0  0  0  0  0  0  0  0  0
    8.4870    0.0000    0.0000 C   0  0  0  0  0  0  0  0  0  0  0  0
    9.6995    0.7000    0.0000 C   0  0  0  0  0  0  0  0  0  0  0  0
    9.6995    2.1000    0.0000 C   0  0  0  0  0  0  0  0  0  0  0  0
    8.4870    2.8000    0.0000 C   0  0  0  0  0  0  0  0  0  0  0  0
    7.2746    2.1000    0.0000 C   0  0  0  0  0  0  0  0  0  0  0  0
  1  2  1  0  0  0  0
  2  3  1  0  0  0  0
  3  4  1  0  0  0  0
  4  5  1  0  0  0  0
  5  6  1  0  0  0  0
  6  1  1  0  0  0  0
  3  7  1  0  0  0  0
  7  8  1  0  0  0  0
  8  9  1  0  0  0  0
  8 10  2  0  0  0  0
  9 11  1  0  0  0  0
 11 12  1  0  0  0  0
 12 13  1  0  0  0  0
 13 14  1  0  0  0  0
 14 15  1  0  0  0  0
 15 16  1  0  0  0  0
 16 11  1  0  0  0  0
M  END
> <Molecule Name>
42

> <CDD Number>
CDD-16083

> <Human_sEH_IC50_uM>
0.13

> <Mouse_sEH_IC50_uM>
0.06

$$$$

SketchEl molfile

 13 13  0  0  0  0  0  0  0  0999 V2000
    0.0000    0.8987    0.0000 C   0  0  0  0  0  0  0  0  0  0  0  0
    1.2124    0.1987    0.0000 C   0  0  0  0  0  0  0  0  0  0  0  0
    2.4249    0.8987    0.0000 C   0  0  0  0  0  0  0  0  0  0  0  0
    2.4249    2.2987    0.0000 C   0  0  0  0  0  0  0  0  0  0  0  0
    1.2124    2.9987    0.0000 C   0  0  0  0  0  0  0  0  0  0  0  0
    0.0000    2.2987    0.0000 C   0  0  0  0  0  0  0  0  0  0  0  0
    3.6373    0.1987    0.0000 N   0  0  0  0  0  0  0  0  0  0  0  0
    4.6273    0.7993    0.0000 C   0  0  0  0  0  0  0  0  0  0  0  0
    5.8397    0.0993    0.0000 N   0  0  0  0  0  0  0  0  0  0  0  0
    4.6273    2.1993    0.0000 O   0  0  0  0  0  0  0  0  0  0  0  0
    6.8296    0.7000    0.0000 C   0  0  0  0  0  0  0  0  0  0  0  0
    8.0421    0.0000    0.0000 C   0  0  0  0  0  0  0  0  0  0  0  0
    9.2545    0.7000    0.0000 C   0  0  0  0  0  0  0  0  0  0  0  0
  1  2  1  0  0  0  0
  2  3  1  0  0  0  0
  3  4  1  0  0  0  0
  4  5  1  0  0  0  0
  5  6  1  0  0  0  0
  6  1  1  0  0  0  0
  3  7  1  0  0  0  0
  7  8  1  0  0  0  0
  8  9  1  0  0  0  0
  8 10  2  0  0  0  0
  9 11  1  0  0  0  0
 11 12  1  0  0  0  0
 12 13  1  0  0  0  0
M  END
> <Molecule Name>
41

> <CDD Number>
CDD-15895

> <Human_sEH_IC50_uM>
3.9

> <Mouse_sEH_IC50_uM>
1.6

$$$$

SketchEl molfile

 17 16  0  0  0  0  0  0  0  0999 V2000
    8.4870    0.7728    0.0000 C   0  0  0  0  0  0  0  0  0  0  0  0
    9.6995    0.0728    0.0000 C   0  0  0  0  0  0  0  0  0  0  0  0
   10.9119    0.7728    0.0000 C   0  0  0  0  0  0  0  0  0  0  0  0
   12.1244    0.0728    0.0000 N   0  0  0  0  0  0  0  0  0  0  0  0
   13.3368    0.7728    0.0000 C   0  0  0  0  0  0  0  0  0  0  0  0
   14.5492    0.0728    0.0000 N   0  0  0  0  0  0  0  0  0  0  0  0
   13.3368    2.1728    0.0000 O   0  0  0  0  0  0  0  0  0  0  0  0
    7.2746    0.0728    0.0000 C   0  0  0  0  0  0  0  0  0  0  0  0
    6.0622    0.7728    0.0000 C   0  0  0  0  0  0  0  0  0  0  0  0
    4.8497    0.0728    0.0000 C   0  0  0  0  0  0  0  0  0  0  0  0
    3.6373    0.7728    0.0000 C   0  0  0  0  0  0  0  0  0  0  0  0
    2.4249    0.0727    0.0000 C   0  0  0  0  0  0  0  0  0  0  0  0
   15.5392    0.6734    0.0000 C   0  0  0  0  0  0  0  0  0  0  0  0
    1.2124    0.7728    0.0000 C   0  0  0  0  0  0  0  0  0  0  0  0
    0.0000    0.0727    0.0000 C   0  0  0  0  0  0  0  0  0  0  0  0
   16.7666    0.0000    0.0000 C   0  0  0  0  0  0  0  0  0  0  0  0
   17.9635    0.7262    0.0000 C   0  0  0  0  0  0  0  0  0  0  0  0
  1  2  1  0  0  0  0
  2  3  1  0  0  0  0
  3  4  1  0  0  0  0
  4  5  1  0  0  0  0
  5  6  1  0  0  0  0
  5  7  2  0  0  0  0
  1  8  1  0  0  0  0
  8  9  1  0  0  0  0
  9 10  1  0  0  0  0
 10 11  1  0  0  0  0
 11 12  1  0  0  0  0
  6 13  1  0  0  0  0
 12 14  1  0  0  0  0
 14 15  1  0  0  0  0
 13 16  1  0  0  0  0
 16 17  1  0  0  0  0
M  END
> <Molecule Name>
39

> <CDD Number>
CDD-15832

> <Human_sEH_IC50_uM>
3.9

> <Mouse_sEH_IC50_uM>
1.6

$$$$

SketchEl molfile

 19 20  0  0  0  0  0  0  0  0999 V2000
    7.2746    0.7000    0.0000 C   0  0  0  0  0  0  0  0  0  0  0  0
    6.0622    0.0000    0.0000 N   0  0  0  0  0  0  0  0  0  0  0  0
    4.8497    0.7000    0.0000 C   0  0  0  0  0  0  0  0  0  0  0  0
    3.6373    0.0000    0.0000 N   0  0  0  0  0  0  0  0  0  0  0  0
    4.8497    2.1000    0.0000 O   0  0  0  0  0  0  0  0  0  0  0  0
    2.4249    0.7000    0.0000 C   0  0  0  0  0  0  0  0  0  0  0  0
    2.4249    2.1000    0.0000 C   0  0  0  0  0  0  0  0  0  0  0  0
    1.2124    2.8000    0.0000 C   0  0  0  0  0  0  0  0  0  0  0  0
    0.0000    2.1000    0.0000 C   0  0  0  0  0  0  0  0  0  0  0  0
    0.0000    0.7000    0.0000 C   0  0  0  0  0  0  0  0  0  0  0  0
    1.2124    0.0000    0.0000 C   0  0  0  0  0  0  0  0  0  0  0  0
    8.4870    0.0000    0.0000 C   0  0  0  0  0  0  0  0  0  0  0  0
    9.6995    0.7000    0.0000 C   0  0  0  0  0  0  0  0  0  0  0  0
    9.6995    2.1000    0.0000 C   0  0  0  0  0  0  0  0  0  0  0  0
    8.4870    2.8000    0.0000 C   0  0  0  0  0  0  0  0  0  0  0  0
    7.2746    2.1000    0.0000 C   0  0  0  0  0  0  0  0  0  0  0  0
   10.9119    2.8000    0.0000 N   0  3  0  0  0  0  0  0  0  0  0  0
   10.9119    4.2000    0.0000 O   0  0  0  0  0  0  0  0  0  0  0  0
   12.1244    2.1000    0.0000 O   0  5  0  0  0  0  0  0  0  0  0  0
  1  2  1  0  0  0  0
  2  3  1  0  0  0  0
  3  4  1  0  0  0  0
  3  5  2  0  0  0  0
  4  6  1  0  0  0  0
  6  7  1  0  0  0  0
  7  8  1  0  0  0  0
  8  9  1  0  0  0  0
  9 10  1  0  0  0  0
 10 11  1  0  0  0  0
 11  6  1  0  0  0  0
  1 12  2  0  0  0  0
 12 13  1  0  0  0  0
 13 14  2  0  0  0  0
 14 15  1  0  0  0  0
 15 16  2  0  0  0  0
 16  1  1  0  0  0  0
 14 17  1  0  0  0  0
 17 18  2  0  0  0  0
 17 19  1  0  0  0  0
M  CHG  2  17   1  19  -1
M  END
> <Molecule Name>
38

> <CDD Number>
CDD-15890

> <Human_sEH_IC50_uM>
0.36

> <Mouse_sEH_IC50_uM>
0.17

$$$$

SketchEl molfile

 16 16  0  0  0  0  0  0  0  0999 V2000
    2.4249    2.1000    0.0000 C   0  0  0  0  0  0  0  0  0  0  0  0
    3.6373    1.4000    0.0000 N   0  0  0  0  0  0  0  0  0  0  0  0
    4.8497    2.1000    0.0000 C   0  0  0  0  0  0  0  0  0  0  0  0
    6.0622    1.4000    0.0000 N   0  0  0  0  0  0  0  0  0  0  0  0
    4.8497    3.5000    0.0000 O   0  0  0  0  0  0  0  0  0  0  0  0
    7.0521    2.0007    0.0000 O   0  0  0  0  0  0  0  0  0  0  0  0
    2.4249    3.5000    0.0000 C   0  0  0  0  0  0  0  0  0  0  0  0
    1.2124    4.2000    0.0000 C   0  0  0  0  0  0  0  0  0  0  0  0
    0.0000    3.5000    0.0000 C   0  0  0  0  0  0  0  0  0  0  0  0
    0.0000    2.1000    0.0000 C   0  0  0  0  0  0  0  0  0  0  0  0
    1.2124    1.4000    0.0000 C   0  0  0  0  0  0  0  0  0  0  0  0
    6.0622    0.0000    0.0000 C   0  0  0  0  0  0  0  0  0  0  0  0
    8.2646    1.3007    0.0000 C   0  0  0  0  0  0  0  0  0  0  0  0
    9.4770    2.0007    0.0000 C   0  0  0  0  0  0  0  0  0  0  0  0
   10.6894    1.3007    0.0000 O   0  0  0  0  0  0  0  0  0  0  0  0
    9.4770    3.4007    0.0000 O   0  0  0  0  0  0  0  0  0  0  0  0
  1  2  1  0  0  0  0
  2  3  1  0  0  0  0
  3  4  1  0  0  0  0
  3  5  2  0  0  0  0
  4  6  1  0  0  0  0
  1  7  2  0  0  0  0
  7  8  1  0  0  0  0
  8  9  2  0  0  0  0
  9 10  1  0  0  0  0
 10 11  2  0  0  0  0
 11  1  1  0  0  0  0
  4 12  1  0  0  0  0
  6 13  1  0  0  0  0
 13 14  1  0  0  0  0
 14 15  1  0  0  0  0
 14 16  2  0  0  0  0
M  END
> <Molecule Name>
37

> <CDD Number>
CDD-16009

> <Human_sEH_IC50_uM>
500.0

> <Mouse_sEH_IC50_uM>
500.0

$$$$

SketchEl molfile

 18 19  0  0  0  0  0  0  0  0999 V2000
    7.2746    0.7000    0.0000 C   0  0  0  0  0  0  0  0  0  0  0  0
    6.0622    0.0000    0.0000 N   0  0  0  0  0  0  0  0  0  0  0  0
    4.8497    0.7000    0.0000 C   0  0  0  0  0  0  0  0  0  0  0  0
    3.6373    0.0000    0.0000 N   0  0  0  0  0  0  0  0  0  0  0  0
    4.8497    2.1000    0.0000 O   0  0  0  0  0  0  0  0  0  0  0  0
    2.4249    0.7000    0.0000 C   0  0  0  0  0  0  0  0  0  0  0  0
    2.4249    2.1000    0.0000 C   0  0  0  0  0  0  0  0  0  0  0  0
    1.2124    2.8000    0.0000 C   0  0  0  0  0  0  0  0  0  0  0  0
    0.0000    2.1000    0.0000 C   0  0  0  0  0  0  0  0  0  0  0  0
    0.0000    0.7000    0.0000 C   0  0  0  0  0  0  0  0  0  0  0  0
    1.2124    0.0000    0.0000 C   0  0  0  0  0  0  0  0  0  0  0  0
    8.4870    0.0000    0.0000 C   0  0  0  0  0  0  0  0  0  0  0  0
    9.6995    0.7000    0.0000 C   0  0  0  0  0  0  0  0  0  0  0  0
   10.9119    0.0000    0.0000 C   0  0  0  0  0  0  0  0  0  0  0  0
   12.1244    0.7000    0.0000 C   0  0  0  0  0  0  0  0  0  0  0  0
   12.1244    2.1000    0.0000 C   0  0  0  0  0  0  0  0  0  0  0  0
   10.9119    2.8000    0.0000 C   0  0  0  0  0  0  0  0  0  0  0  0
    9.6995    2.1000    0.0000 C   0  0  0  0  0  0  0  0  0  0  0  0
  1  2  1  0  0  0  0
  2  3  1  0  0  0  0
  3  4  1  0  0  0  0
  3  5  2  0  0  0  0
  4  6  1  0  0  0  0
  6  7  1  0  0  0  0
  7  8  1  0  0  0  0
  8  9  1  0  0  0  0
  9 10  1  0  0  0  0
 10 11  1  0  0  0  0
 11  6  1  0  0  0  0
  1 12  1  0  0  0  0
 12 13  1  0  0  0  0
 13 14  2  0  0  0  0
 14 15  1  0  0  0  0
 15 16  2  0  0  0  0
 16 17  1  0  0  0  0
 17 18  2  0  0  0  0
 18 13  1  0  0  0  0
M  END
> <Molecule Name>
36

> <CDD Number>
CDD-15968

> <Human_sEH_IC50_uM>
0.16

> <Mouse_sEH_IC50_uM>
0.06

$$$$

SketchEl molfile

 14 14  0  0  0  0  0  0  0  0999 V2000
    0.0000    0.7993    0.0000 C   0  0  0  0  0  0  0  0  0  0  0  0
    1.2124    0.0993    0.0000 C   0  0  0  0  0  0  0  0  0  0  0  0
    2.4249    0.7993    0.0000 C   0  0  0  0  0  0  0  0  0  0  0  0
    2.4249    2.1993    0.0000 C   0  0  0  0  0  0  0  0  0  0  0  0
    1.2124    2.8993    0.0000 C   0  0  0  0  0  0  0  0  0  0  0  0
    0.0000    2.1993    0.0000 C   0  0  0  0  0  0  0  0  0  0  0  0
    3.6373    0.0993    0.0000 N   0  0  0  0  0  0  0  0  0  0  0  0
    4.6273    0.7000    0.0000 C   0  0  0  0  0  0  0  0  0  0  0  0
    5.8397    0.0000    0.0000 N   0  0  0  0  0  0  0  0  0  0  0  0
    4.6273    2.1000    0.0000 O   0  0  0  0  0  0  0  0  0  0  0  0
    6.8296    0.6007    0.0000 C   0  0  0  0  0  0  0  0  0  0  0  0
    6.8296    2.0007    0.0000 C   0  0  0  0  0  0  0  0  0  0  0  0
    8.0421    1.3007    0.0000 C   0  0  0  0  0  0  0  0  0  0  0  0
    8.2296    0.6007    0.0000 C   0  0  0  0  0  0  0  0  0  0  0  0
  1  2  1  0  0  0  0
  2  3  1  0  0  0  0
  3  4  1  0  0  0  0
  4  5  1  0  0  0  0
  5  6  1  0  0  0  0
  6  1  1  0  0  0  0
  3  7  1  0  0  0  0
  7  8  1  0  0  0  0
  8  9  1  0  0  0  0
  8 10  2  0  0  0  0
  9 11  1  0  0  0  0
 11 12  1  0  0  0  0
 11 13  1  0  0  0  0
 11 14  1  0  0  0  0
M  END
> <Molecule Name>
35

> <CDD Number>
CDD-15899

> <Human_sEH_IC50_uM>
17.0

> <Mouse_sEH_IC50_uM>
4.2

$$$$

SketchEl molfile

 13 12  0  0  0  0  0  0  0  0999 V2000
    6.0622    0.7000    0.0000 C   0  0  0  0  0  0  0  0  0  0  0  0
    7.2746    0.0000    0.0000 C   0  0  0  0  0  0  0  0  0  0  0  0
    8.4870    0.7000    0.0000 C   0  0  0  0  0  0  0  0  0  0  0  0
    9.6995    0.0000    0.0000 N   0  0  0  0  0  0  0  0  0  0  0  0
   10.9119    0.7000    0.0000 C   0  0  0  0  0  0  0  0  0  0  0  0
   12.1244    0.0000    0.0000 N   0  0  0  0  0  0  0  0  0  0  0  0
   10.9119    2.1000    0.0000 O   0  0  0  0  0  0  0  0  0  0  0  0
    4.8497    0.0000    0.0000 C   0  0  0  0  0  0  0  0  0  0  0  0
    3.6373    0.7000    0.0000 C   0  0  0  0  0  0  0  0  0  0  0  0
    2.4249    0.0000    0.0000 C   0  0  0  0  0  0  0  0  0  0  0  0
    1.2124    0.7000    0.0000 C   0  0  0  0  0  0  0  0  0  0  0  0
    0.0000    0.0000    0.0000 C   0  0  0  0  0  0  0  0  0  0  0  0
   13.1143    0.6007    0.0000 C   0  0  0  0  0  0  0  0  0  0  0  0
  1  2  1  0  0  0  0
  2  3  1  0  0  0  0
  3  4  1  0  0  0  0
  4  5  1  0  0  0  0
  5  6  1  0  0  0  0
  5  7  2  0  0  0  0
  1  8  1  0  0  0  0
  8  9  1  0  0  0  0
  9 10  1  0  0  0  0
 10 11  1  0  0  0  0
 11 12  1  0  0  0  0
  6 13  1  0  0  0  0
M  END
> <Molecule Name>
34

> <CDD Number>
CDD-15815

> <Human_sEH_IC50_uM>
445.0

> <Mouse_sEH_IC50_uM>
136.0

$$$$

SketchEl molfile

 11 11  0  0  0  0  0  0  0  0999 V2000
    0.0000    0.7993    0.0000 C   0  0  0  0  0  0  0  0  0  0  0  0
    1.2124    0.0993    0.0000 C   0  0  0  0  0  0  0  0  0  0  0  0
    2.4249    0.7993    0.0000 C   0  0  0  0  0  0  0  0  0  0  0  0
    2.4249    2.1993    0.0000 C   0  0  0  0  0  0  0  0  0  0  0  0
    1.2124    2.8993    0.0000 C   0  0  0  0  0  0  0  0  0  0  0  0
    0.0000    2.1993    0.0000 C   0  0  0  0  0  0  0  0  0  0  0  0
    3.6373    0.0993    0.0000 N   0  0  0  0  0  0  0  0  0  0  0  0
    4.6273    0.7000    0.0000 C   0  0  0  0  0  0  0  0  0  0  0  0
    5.8397    0.0000    0.0000 N   0  0  0  0  0  0  0  0  0  0  0  0
    4.6273    2.1000    0.0000 O   0  0  0  0  0  0  0  0  0  0  0  0
    6.8296    0.6007    0.0000 C   0  0  0  0  0  0  0  0  0  0  0  0
  1  2  1  0  0  0  0
  2  3  1  0  0  0  0
  3  4  1  0  0  0  0
  4  5  1  0  0  0  0
  5  6  1  0  0  0  0
  6  1  1  0  0  0  0
  3  7  1  0  0  0  0
  7  8  1  0  0  0  0
  8  9  1  0  0  0  0
  8 10  2  0  0  0  0
  9 11  1  0  0  0  0
M  END
> <Molecule Name>
33

> <CDD Number>
CDD-15867

> <Human_sEH_IC50_uM>
500.0

> <Mouse_sEH_IC50_uM>
500.0

$$$$

SketchEl molfile

 13 13  0  0  0  0  0  0  0  0999 V2000
    1.2124    0.7993    0.0000 C   0  0  0  0  0  0  0  0  0  0  0  0
    2.4249    0.0993    0.0000 C   0  0  0  0  0  0  0  0  0  0  0  0
    3.6373    0.7993    0.0000 C   0  0  0  0  0  0  0  0  0  0  0  0
    3.6373    2.1993    0.0000 C   0  0  0  0  0  0  0  0  0  0  0  0
    2.4249    2.8993    0.0000 C   0  0  0  0  0  0  0  0  0  0  0  0
    1.2124    2.1993    0.0000 C   0  0  0  0  0  0  0  0  0  0  0  0
    4.8497    0.0993    0.0000 N   0  0  0  0  0  0  0  0  0  0  0  0
    5.8397    0.7000    0.0000 C   0  0  0  0  0  0  0  0  0  0  0  0
    7.0521    0.0000    0.0000 N   0  0  0  0  0  0  0  0  0  0  0  0
    5.8397    2.1000    0.0000 O   0  0  0  0  0  0  0  0  0  0  0  0
    8.0421    0.6007    0.0000 C   0  0  0  0  0  0  0  0  0  0  0  0
    0.0000    2.8993    0.0000 Cl  0  0  0  0  0  0  0  0  0  0  0  0
    0.0000    0.0993    0.0000 Cl  0  0  0  0  0  0  0  0  0  0  0  0
  1  2  2  0  0  0  0
  2  3  1  0  0  0  0
  3  4  2  0  0  0  0
  4  5  1  0  0  0  0
  5  6  2  0  0  0  0
  6  1  1  0  0  0  0
  3  7  1  0  0  0  0
  7  8  1  0  0  0  0
  8  9  1  0  0  0  0
  8 10  2  0  0  0  0
  9 11  1  0  0  0  0
  6 12  1  0  0  0  0
  1 13  1  0  0  0  0
M  END
> <Molecule Name>
32

> <CDD Number>
CDD-16046

> <Human_sEH_IC50_uM>
47.0

> <Mouse_sEH_IC50_uM>
108.0

$$$$

SketchEl molfile

 13 13  0  0  0  0  0  0  0  0999 V2000
    0.0000    0.8721    0.0000 C   0  0  0  0  0  0  0  0  0  0  0  0
    1.2124    0.1721    0.0000 C   0  0  0  0  0  0  0  0  0  0  0  0
    2.4249    0.8721    0.0000 C   0  0  0  0  0  0  0  0  0  0  0  0
    2.4249    2.2721    0.0000 C   0  0  0  0  0  0  0  0  0  0  0  0
    1.2124    2.9721    0.0000 C   0  0  0  0  0  0  0  0  0  0  0  0
    0.0000    2.2721    0.0000 C   0  0  0  0  0  0  0  0  0  0  0  0
    3.6373    0.1721    0.0000 N   0  0  0  0  0  0  0  0  0  0  0  0
    4.6273    0.7728    0.0000 C   0  0  0  0  0  0  0  0  0  0  0  0
    5.8397    0.0728    0.0000 N   0  0  0  0  0  0  0  0  0  0  0  0
    4.6273    2.1728    0.0000 O   0  0  0  0  0  0  0  0  0  0  0  0
    6.8296    0.6734    0.0000 C   0  0  0  0  0  0  0  0  0  0  0  0
    8.0570    0.0000    0.0000 C   0  0  0  0  0  0  0  0  0  0  0  0
    6.8296    2.0734    0.0000 C   0  0  0  0  0  0  0  0  0  0  0  0
  1  2  1  0  0  0  0
  2  3  1  0  0  0  0
  3  4  1  0  0  0  0
  4  5  1  0  0  0  0
  5  6  1  0  0  0  0
  6  1  1  0  0  0  0
  3  7  1  0  0  0  0
  7  8  1  0  0  0  0
  8  9  1  0  0  0  0
  8 10  2  0  0  0  0
  9 11  1  0  0  0  0
 11 12  1  0  0  0  0
 11 13  1  0  0  0  0
M  END
> <Molecule Name>
31

> <CDD Number>
CDD-15891

> <Human_sEH_IC50_uM>
40.0

> <Mouse_sEH_IC50_uM>
17.0

$$$$

SketchEl molfile

 16 16  0  0  0  0  0  0  0  0999 V2000
    1.2124    0.8987    0.0000 C   0  0  0  0  0  0  0  0  0  0  0  0
    2.4249    0.1987    0.0000 C   0  0  0  0  0  0  0  0  0  0  0  0
    3.6373    0.8987    0.0000 C   0  0  0  0  0  0  0  0  0  0  0  0
    3.6373    2.2987    0.0000 C   0  0  0  0  0  0  0  0  0  0  0  0
    2.4249    2.9987    0.0000 C   0  0  0  0  0  0  0  0  0  0  0  0
    1.2124    2.2987    0.0000 C   0  0  0  0  0  0  0  0  0  0  0  0
    4.8497    0.1987    0.0000 N   0  0  0  0  0  0  0  0  0  0  0  0
    5.8397    0.7993    0.0000 C   0  0  0  0  0  0  0  0  0  0  0  0
    7.0521    0.0993    0.0000 N   0  0  0  0  0  0  0  0  0  0  0  0
    5.8397    2.1993    0.0000 O   0  0  0  0  0  0  0  0  0  0  0  0
    8.0421    0.7000    0.0000 C   0  0  0  0  0  0  0  0  0  0  0  0
    0.0000    2.9987    0.0000 Cl  0  0  0  0  0  0  0  0  0  0  0  0
    0.0000    0.1987    0.0000 Cl  0  0  0  0  0  0  0  0  0  0  0  0
    9.2545    0.0000    0.0000 C   0  0  0  0  0  0  0  0  0  0  0  0
   10.4669    0.7000    0.0000 C   0  0  0  0  0  0  0  0  0  0  0  0
   11.6794    0.0000    0.0000 C   0  0  0  0  0  0  0  0  0  0  0  0
  1  2  2  0  0  0  0
  2  3  1  0  0  0  0
  3  4  2  0  0  0  0
  4  5  1  0  0  0  0
  5  6  2  0  0  0  0
  6  1  1  0  0  0  0
  3  7  1  0  0  0  0
  7  8  1  0  0  0  0
  8  9  1  0  0  0  0
  8 10  2  0  0  0  0
  9 11  1  0  0  0  0
  6 12  1  0  0  0  0
  1 13  1  0  0  0  0
 11 14  1  0  0  0  0
 14 15  1  0  0  0  0
 15 16  1  0  0  0  0
M  END
> <Molecule Name>
30

> <CDD Number>
CDD-16047

> <Human_sEH_IC50_uM>
1.27

> <Mouse_sEH_IC50_uM>
1.43

$$$$
> <Molecule Name>
24

> <Human_sEH_IC50_uM>
16.0

> <Mouse_sEH_IC50_uM>
4.1

$$$$

SketchEl molfile

 15 16  0  0  0  0  0  0  0  0999 V2000
    0.0000    0.8987    0.0000 C   0  0  0  0  0  0  0  0  0  0  0  0
    1.2124    0.1987    0.0000 C   0  0  0  0  0  0  0  0  0  0  0  0
    2.4249    0.8987    0.0000 C   0  0  0  0  0  0  0  0  0  0  0  0
    2.4249    2.2987    0.0000 C   0  0  0  0  0  0  0  0  0  0  0  0
    1.2124    2.9987    0.0000 C   0  0  0  0  0  0  0  0  0  0  0  0
    0.0000    2.2987    0.0000 C   0  0  0  0  0  0  0  0  0  0  0  0
    3.6373    0.1987    0.0000 N   0  0  0  0  0  0  0  0  0  0  0  0
    4.6273    0.7993    0.0000 C   0  0  0  0  0  0  0  0  0  0  0  0
    5.8397    0.0993    0.0000 N   0  0  0  0  0  0  0  0  0  0  0  0
    4.6273    2.1993    0.0000 O   0  0  0  0  0  0  0  0  0  0  0  0
    6.8296    0.7000    0.0000 C   0  0  0  0  0  0  0  0  0  0  0  0
    7.1920    2.0523    0.0000 C   0  0  0  0  0  0  0  0  0  0  0  0
    8.0421    0.0000    0.0000 C   0  0  0  0  0  0  0  0  0  0  0  0
    9.0320    0.9899    0.0000 C   0  0  0  0  0  0  0  0  0  0  0  0
    8.5920    2.0523    0.0000 C   0  0  0  0  0  0  0  0  0  0  0  0
  1  2  1  0  0  0  0
  2  3  1  0  0  0  0
  3  4  1  0  0  0  0
  4  5  1  0  0  0  0
  5  6  1  0  0  0  0
  6  1  1  0  0  0  0
  3  7  1  0  0  0  0
  7  8  1  0  0  0  0
  8  9  1  0  0  0  0
  8 10  2  0  0  0  0
  9 11  1  0  0  0  0
 11 12  1  0  0  0  0
 11 13  1  0  0  0  0
 13 14  1  0  0  0  0
 12 15  1  0  0  0  0
 15 14  1  0  0  0  0
M  END
> <Molecule Name>
23

> <CDD Number>
CDD-15938

> <Human_sEH_IC50_uM>
1.69

> <Mouse_sEH_IC50_uM>
0.1

$$$$

SketchEl molfile

 17 18  0  0  0  0  0  0  0  0999 V2000
    0.0000    2.2523    0.0000 C   0  0  0  0  0  0  0  0  0  0  0  0
    0.0000    0.8523    0.0000 C   0  0  0  0  0  0  0  0  0  0  0  0
    1.2124    0.1523    0.0000 C   0  0  0  0  0  0  0  0  0  0  0  0
    2.4249    0.8523    0.0000 C   0  0  0  0  0  0  0  0  0  0  0  0
    2.4249    2.2523    0.0000 C   0  0  0  0  0  0  0  0  0  0  0  0
    1.2124    2.9523    0.0000 C   0  0  0  0  0  0  0  0  0  0  0  0
    3.6373    0.1523    0.0000 N   0  0  0  0  0  0  0  0  0  0  0  0
    4.8497    0.8523    0.0000 C   0  0  0  0  0  0  0  0  0  0  0  0
    6.0622    0.1523    0.0000 N   0  0  0  0  0  0  0  0  0  0  0  0
    4.8497    2.2523    0.0000 O   0  0  0  0  0  0  0  0  0  0  0  0
    7.2746    0.8523    0.0000 C   0  0  0  0  0  0  0  0  0  0  0  0
    7.0919    2.2403    0.0000 C   0  0  0  0  0  0  0  0  0  0  0  0
    8.3853    0.0000    0.0000 C   0  0  0  0  0  0  0  0  0  0  0  0
    9.6787    0.5358    0.0000 C   0  0  0  0  0  0  0  0  0  0  0  0
   10.2145    1.8292    0.0000 C   0  0  0  0  0  0  0  0  0  0  0  0
    9.3622    2.9399    0.0000 C   0  0  0  0  0  0  0  0  0  0  0  0
    8.2026    3.0926    0.0000 C   0  0  0  0  0  0  0  0  0  0  0  0
  1  2  1  0  0  0  0
  2  3  1  0  0  0  0
  3  4  1  0  0  0  0
  4  5  1  0  0  0  0
  5  6  1  0  0  0  0
  6  1  1  0  0  0  0
  4  7  1  0  0  0  0
  7  8  1  0  0  0  0
  8  9  1  0  0  0  0
  8 10  2  0  0  0  0
  9 11  1  0  0  0  0
 11 12  1  0  0  0  0
 11 13  1  0  0  0  0
 13 14  1  0  0  0  0
 14 15  1  0  0  0  0
 15 16  1  0  0  0  0
 12 17  1  0  0  0  0
 17 16  1  0  0  0  0
M  END
> <Molecule Name>
22

> <CDD Number>
CDD-15951

> <Human_sEH_IC50_uM>
0.1

> <Mouse_sEH_IC50_uM>
0.05

$$$$

SketchEl molfile

 16 17  0  0  0  0  0  0  0  0999 V2000
    7.2746    0.7000    0.0000 C   0  0  0  0  0  0  0  0  0  0  0  0
    6.0622    0.0000    0.0000 N   0  0  0  0  0  0  0  0  0  0  0  0
    4.8497    0.7000    0.0000 C   0  0  0  0  0  0  0  0  0  0  0  0
    3.6373    0.0000    0.0000 N   0  0  0  0  0  0  0  0  0  0  0  0
    4.8497    2.1000    0.0000 O   0  0  0  0  0  0  0  0  0  0  0  0
    2.4249    0.7000    0.0000 C   0  0  0  0  0  0  0  0  0  0  0  0
    2.4249    2.1000    0.0000 C   0  0  0  0  0  0  0  0  0  0  0  0
    1.2124    2.8000    0.0000 C   0  0  0  0  0  0  0  0  0  0  0  0
    0.0000    2.1000    0.0000 C   0  0  0  0  0  0  0  0  0  0  0  0
    0.0000    0.7000    0.0000 C   0  0  0  0  0  0  0  0  0  0  0  0
    1.2124    0.0000    0.0000 C   0  0  0  0  0  0  0  0  0  0  0  0
    8.4870    0.0000    0.0000 C   0  0  0  0  0  0  0  0  0  0  0  0
    9.6995    0.7000    0.0000 C   0  0  0  0  0  0  0  0  0  0  0  0
    9.6995    2.1000    0.0000 C   0  0  0  0  0  0  0  0  0  0  0  0
    8.4870    2.8000    0.0000 C   0  0  0  0  0  0  0  0  0  0  0  0
    7.2746    2.1000    0.0000 C   0  0  0  0  0  0  0  0  0  0  0  0
  1  2  1  0  0  0  0
  2  3  1  0  0  0  0
  3  4  1  0  0  0  0
  3  5  2  0  0  0  0
  4  6  1  0  0  0  0
  6  7  1  0  0  0  0
  7  8  1  0  0  0  0
  8  9  1  0  0  0  0
  9 10  1  0  0  0  0
 10 11  1  0  0  0  0
 11  6  1  0  0  0  0
  1 12  2  0  0  0  0
 12 13  1  0  0  0  0
 13 14  2  0  0  0  0
 14 15  1  0  0  0  0
 15 16  2  0  0  0  0
 16  1  1  0  0  0  0
M  END
> <Molecule Name>
21

> <CDD Number>
CDD-15957

> <Human_sEH_IC50_uM>
1.39

> <Mouse_sEH_IC50_uM>
0.76

$$$$

SketchEl molfile

 17 18  0  0  0  0  0  0  0  0999 V2000
    7.2746    0.7000    0.0000 C   0  0  0  0  0  0  0  0  0  0  0  0
    6.0622    0.0000    0.0000 N   0  0  0  0  0  0  0  0  0  0  0  0
    4.8497    0.7000    0.0000 C   0  0  0  0  0  0  0  0  0  0  0  0
    3.6373    0.0000    0.0000 N   0  0  0  0  0  0  0  0  0  0  0  0
    4.8497    2.1000    0.0000 O   0  0  0  0  0  0  0  0  0  0  0  0
    2.4249    0.7000    0.0000 C   0  0  0  0  0  0  0  0  0  0  0  0
    2.4249    2.1000    0.0000 C   0  0  0  0  0  0  0  0  0  0  0  0
    1.2124    2.8000    0.0000 C   0  0  0  0  0  0  0  0  0  0  0  0
    0.0000    2.1000    0.0000 C   0  0  0  0  0  0  0  0  0  0  0  0
    0.0000    0.7000    0.0000 C   0  0  0  0  0  0  0  0  0  0  0  0
    1.2124    0.0000    0.0000 C   0  0  0  0  0  0  0  0  0  0  0  0
    8.4870    0.0000    0.0000 C   0  0  0  0  0  0  0  0  0  0  0  0
    9.6995    0.7000    0.0000 C   0  0  0  0  0  0  0  0  0  0  0  0
    9.6995    2.1000    0.0000 C   0  0  0  0  0  0  0  0  0  0  0  0
    8.4870    2.8000    0.0000 C   0  0  0  0  0  0  0  0  0  0  0  0
    7.2746    2.1000    0.0000 C   0  0  0  0  0  0  0  0  0  0  0  0
   10.9119    2.8000    0.0000 Cl  0  0  0  0  0  0  0  0  0  0  0  0
  1  2  1  0  0  0  0
  2  3  1  0  0  0  0
  3  4  1  0  0  0  0
  3  5  2  0  0  0  0
  4  6  1  0  0  0  0
  6  7  1  0  0  0  0
  7  8  1  0  0  0  0
  8  9  1  0  0  0  0
  9 10  1  0  0  0  0
 10 11  1  0  0  0  0
 11  6  1  0  0  0  0
  1 12  2  0  0  0  0
 12 13  1  0  0  0  0
 13 14  2  0  0  0  0
 14 15  1  0  0  0  0
 15 16  2  0  0  0  0
 16  1  1  0  0  0  0
 14 17  1  0  0  0  0
M  END
> <Molecule Name>
20

> <CDD Number>
CDD-15880

> <Human_sEH_IC50_uM>
0.4

> <Mouse_sEH_IC50_uM>
0.19

$$$$

SketchEl molfile

 16 15  0  0  0  0  0  0  0  0999 V2000
    8.4870    0.7728    0.0000 C   0  0  0  0  0  0  0  0  0  0  0  0
    9.6995    0.0728    0.0000 C   0  0  0  0  0  0  0  0  0  0  0  0
   10.9119    0.7728    0.0000 C   0  0  0  0  0  0  0  0  0  0  0  0
   12.1244    0.0728    0.0000 N   0  0  0  0  0  0  0  0  0  0  0  0
   13.3368    0.7728    0.0000 C   0  0  0  0  0  0  0  0  0  0  0  0
   14.5492    0.0728    0.0000 N   0  0  0  0  0  0  0  0  0  0  0  0
   13.3368    2.1728    0.0000 O   0  0  0  0  0  0  0  0  0  0  0  0
    7.2746    0.0728    0.0000 C   0  0  0  0  0  0  0  0  0  0  0  0
    6.0622    0.7728    0.0000 C   0  0  0  0  0  0  0  0  0  0  0  0
    4.8497    0.0728    0.0000 C   0  0  0  0  0  0  0  0  0  0  0  0
    3.6373    0.7728    0.0000 C   0  0  0  0  0  0  0  0  0  0  0  0
    2.4249    0.0727    0.0000 C   0  0  0  0  0  0  0  0  0  0  0  0
   15.5392    0.6734    0.0000 C   0  0  0  0  0  0  0  0  0  0  0  0
    1.2124    0.7728    0.0000 C   0  0  0  0  0  0  0  0  0  0  0  0
    0.0000    0.0727    0.0000 C   0  0  0  0  0  0  0  0  0  0  0  0
   16.7666    0.0000    0.0000 C   0  0  0  0  0  0  0  0  0  0  0  0
  1  2  1  0  0  0  0
  2  3  1  0  0  0  0
  3  4  1  0  0  0  0
  4  5  1  0  0  0  0
  5  6  1  0  0  0  0
  5  7  2  0  0  0  0
  1  8  1  0  0  0  0
  8  9  1  0  0  0  0
  9 10  1  0  0  0  0
 10 11  1  0  0  0  0
 11 12  1  0  0  0  0
  6 13  1  0  0  0  0
 12 14  1  0  0  0  0
 14 15  1  0  0  0  0
 13 16  1  0  0  0  0
M  END
> <Molecule Name>
19

> <CDD Number>
CDD-15831

> <Human_sEH_IC50_uM>
48.0

> <Mouse_sEH_IC50_uM>
5.8

$$$$

SketchEl molfile

 11 10  0  0  0  0  0  0  0  0999 V2000
    3.6373    0.7000    0.0000 C   0  0  0  0  0  0  0  0  0  0  0  0
    4.8497    0.0000    0.0000 C   0  0  0  0  0  0  0  0  0  0  0  0
    6.0622    0.7000    0.0000 C   0  0  0  0  0  0  0  0  0  0  0  0
    7.2746    0.0000    0.0000 N   0  0  0  0  0  0  0  0  0  0  0  0
    8.4870    0.7000    0.0000 C   0  0  0  0  0  0  0  0  0  0  0  0
    9.6995    0.0000    0.0000 N   0  0  0  0  0  0  0  0  0  0  0  0
    8.4870    2.1000    0.0000 O   0  0  0  0  0  0  0  0  0  0  0  0
    2.4249    0.0000    0.0000 C   0  0  0  0  0  0  0  0  0  0  0  0
    1.2124    0.7000    0.0000 C   0  0  0  0  0  0  0  0  0  0  0  0
    0.0000    0.0000    0.0000 C   0  0  0  0  0  0  0  0  0  0  0  0
   10.6894    0.6007    0.0000 C   0  0  0  0  0  0  0  0  0  0  0  0
  1  2  1  0  0  0  0
  2  3  1  0  0  0  0
  3  4  1  0  0  0  0
  4  5  1  0  0  0  0
  5  6  1  0  0  0  0
  5  7  2  0  0  0  0
  1  8  1  0  0  0  0
  8  9  1  0  0  0  0
  9 10  1  0  0  0  0
  6 11  1  0  0  0  0
M  END
> <Molecule Name>
18

> <CDD Number>
CDD-15807

> <Human_sEH_IC50_uM>
500.0

> <Mouse_sEH_IC50_uM>
224.0

$$$$

SketchEl molfile

 15 14  0  0  0  0  0  0  0  0999 V2000
    8.4870    0.7000    0.0000 C   0  0  0  0  0  0  0  0  0  0  0  0
    9.6995    0.0000    0.0000 C   0  0  0  0  0  0  0  0  0  0  0  0
   10.9119    0.7000    0.0000 C   0  0  0  0  0  0  0  0  0  0  0  0
   12.1244    0.0000    0.0000 N   0  0  0  0  0  0  0  0  0  0  0  0
   13.3368    0.7000    0.0000 C   0  0  0  0  0  0  0  0  0  0  0  0
   14.5492    0.0000    0.0000 N   0  0  0  0  0  0  0  0  0  0  0  0
   13.3368    2.1000    0.0000 O   0  0  0  0  0  0  0  0  0  0  0  0
    7.2746    0.0000    0.0000 C   0  0  0  0  0  0  0  0  0  0  0  0
    6.0622    0.7000    0.0000 C   0  0  0  0  0  0  0  0  0  0  0  0
    4.8497    0.0000    0.0000 C   0  0  0  0  0  0  0  0  0  0  0  0
    3.6373    0.7000    0.0000 C   0  0  0  0  0  0  0  0  0  0  0  0
    2.4249    0.0000    0.0000 C   0  0  0  0  0  0  0  0  0  0  0  0
   15.5392    0.6007    0.0000 C   0  0  0  0  0  0  0  0  0  0  0  0
    1.2124    0.7000    0.0000 C   0  0  0  0  0  0  0  0  0  0  0  0
    0.0000    0.0000    0.0000 C   0  0  0  0  0  0  0  0  0  0  0  0
  1  2  1  0  0  0  0
  2  3  1  0  0  0  0
  3  4  1  0  0  0  0
  4  5  1  0  0  0  0
  5  6  1  0  0  0  0
  5  7  2  0  0  0  0
  1  8  1  0  0  0  0
  8  9  1  0  0  0  0
  9 10  1  0  0  0  0
 10 11  1  0  0  0  0
 11 12  1  0  0  0  0
  6 13  1  0  0  0  0
 12 14  1  0  0  0  0
 14 15  1  0  0  0  0
M  END
> <Molecule Name>
17

> <CDD Number>
CDD-15830

> <Human_sEH_IC50_uM>
500.0

> <Mouse_sEH_IC50_uM>
78.0

$$$$

SketchEl molfile

 16 17  0  0  0  0  0  0  0  0999 V2000
    2.4249    0.7000    0.0000 C   0  0  0  0  0  0  0  0  0  0  0  0
    3.6373    0.0000    0.0000 N   0  0  0  0  0  0  0  0  0  0  0  0
    4.8497    0.7000    0.0000 C   0  0  0  0  0  0  0  0  0  0  0  0
    6.0622    0.0000    0.0000 S   0  0  0  0  0  0  0  0  0  0  0  0
    4.8497    2.1000    0.0000 O   0  0  0  0  0  0  0  0  0  0  0  0
    7.2746    0.7000    0.0000 C   0  0  0  0  0  0  0  0  0  0  0  0
    8.4870    0.0000    0.0000 C   0  0  0  0  0  0  0  0  0  0  0  0
    9.6995    0.7000    0.0000 C   0  0  0  0  0  0  0  0  0  0  0  0
    9.6995    2.1000    0.0000 C   0  0  0  0  0  0  0  0  0  0  0  0
    8.4870    2.8000    0.0000 C   0  0  0  0  0  0  0  0  0  0  0  0
    7.2746    2.1000    0.0000 C   0  0  0  0  0  0  0  0  0  0  0  0
    2.4249    2.1000    0.0000 C   0  0  0  0  0  0  0  0  0  0  0  0
    1.2124    2.8000    0.0000 C   0  0  0  0  0  0  0  0  0  0  0  0
    0.0000    2.1000    0.0000 C   0  0  0  0  0  0  0  0  0  0  0  0
    0.0000    0.7000    0.0000 C   0  0  0  0  0  0  0  0  0  0  0  0
    1.2124    0.0000    0.0000 C   0  0  0  0  0  0  0  0  0  0  0  0
  1  2  1  0  0  0  0
  2  3  1  0  0  0  0
  3  4  1  0  0  0  0
  3  5  2  0  0  0  0
  4  6  1  0  0  0  0
  6  7  1  0  0  0  0
  7  8  1  0  0  0  0
  8  9  1  0  0  0  0
  9 10  1  0  0  0  0
 10 11  1  0  0  0  0
 11  6  1  0  0  0  0
  1 12  1  0  0  0  0
 12 13  1  0  0  0  0
 13 14  1  0  0  0  0
 14 15  1  0  0  0  0
 15 16  1  0  0  0  0
 16  1  1  0  0  0  0
M  END
> <Molecule Name>
16

> <CDD Number>
CDD-16173

> <Human_sEH_IC50_uM>
7.5

> <Mouse_sEH_IC50_uM>
3.8

$$$$

SketchEl molfile

 17 18  0  0  0  0  0  0  0  0999 V2000
    1.2124    2.1000    0.0000 C   0  0  0  0  0  0  0  0  0  0  0  0
    1.2124    0.7000    0.0000 C   0  0  0  0  0  0  0  0  0  0  0  0
    2.4249    0.0000    0.0000 C   0  0  0  0  0  0  0  0  0  0  0  0
    3.6373    0.7000    0.0000 C   0  0  0  0  0  0  0  0  0  0  0  0
    3.6373    2.1000    0.0000 C   0  0  0  0  0  0  0  0  0  0  0  0
    2.4249    2.8000    0.0000 C   0  0  0  0  0  0  0  0  0  0  0  0
    0.0000    2.8000    0.0000 Cl  0  0  0  0  0  0  0  0  0  0  0  0
    4.8497    0.0000    0.0000 N   0  0  0  0  0  0  0  0  0  0  0  0
    6.0622    0.7000    0.0000 C   0  0  0  0  0  0  0  0  0  0  0  0
    7.2746    0.0000    0.0000 S   0  0  0  0  0  0  0  0  0  0  0  0
    6.0622    2.1000    0.0000 O   0  0  0  0  0  0  0  0  0  0  0  0
    8.4870    0.7000    0.0000 C   0  0  0  0  0  0  0  0  0  0  0  0
    9.6995    0.0000    0.0000 C   0  0  0  0  0  0  0  0  0  0  0  0
   10.9119    0.7000    0.0000 C   0  0  0  0  0  0  0  0  0  0  0  0
   10.9119    2.1000    0.0000 C   0  0  0  0  0  0  0  0  0  0  0  0
    9.6995    2.8000    0.0000 C   0  0  0  0  0  0  0  0  0  0  0  0
    8.4870    2.1000    0.0000 C   0  0  0  0  0  0  0  0  0  0  0  0
  1  2  2  0  0  0  0
  2  3  1  0  0  0  0
  3  4  2  0  0  0  0
  4  5  1  0  0  0  0
  5  6  2  0  0  0  0
  6  1  1  0  0  0  0
  1  7  1  0  0  0  0
  4  8  1  0  0  0  0
  8  9  1  0  0  0  0
  9 10  1  0  0  0  0
  9 11  2  0  0  0  0
 10 12  1  0  0  0  0
 12 13  1  0  0  0  0
 13 14  1  0  0  0  0
 14 15  1  0  0  0  0
 15 16  1  0  0  0  0
 16 17  1  0  0  0  0
 17 12  1  0  0  0  0
M  END
> <Molecule Name>
15

> <CDD Number>
CDD-16172

> <Human_sEH_IC50_uM>
3.3

> <Mouse_sEH_IC50_uM>
7.4

$$$$

SketchEl molfile

 14 15  0  0  0  0  0  0  0  0999 V2000
    0.0000    2.1000    0.0000 C   0  0  0  0  0  0  0  0  0  0  0  0
    0.0000    0.7000    0.0000 C   0  0  0  0  0  0  0  0  0  0  0  0
    1.2124    0.0000    0.0000 C   0  0  0  0  0  0  0  0  0  0  0  0
    2.4249    0.7000    0.0000 C   0  0  0  0  0  0  0  0  0  0  0  0
    2.4249    2.1000    0.0000 C   0  0  0  0  0  0  0  0  0  0  0  0
    1.2124    2.8000    0.0000 N   0  0  0  0  0  0  0  0  0  0  0  0
    3.6373    2.8000    0.0000 C   0  0  0  0  0  0  0  0  0  0  0  0
    4.8497    2.1000    0.0000 C   0  0  0  0  0  0  0  0  0  0  0  0
    4.8497    0.7000    0.0000 C   0  0  0  0  0  0  0  0  0  0  0  0
    6.0622    0.0000    0.0000 C   0  0  0  0  0  0  0  0  0  0  0  0
    7.2746    0.7000    0.0000 C   0  0  0  0  0  0  0  0  0  0  0  0
    7.2746    2.1000    0.0000 C   0  0  0  0  0  0  0  0  0  0  0  0
    6.0622    2.8000    0.0000 N   0  0  0  0  0  0  0  0  0  0  0  0
    3.6373    4.2000    0.0000 O   0  0  0  0  0  0  0  0  0  0  0  0
  1  2  2  0  0  0  0
  2  3  1  0  0  0  0
  3  4  2  0  0  0  0
  4  5  1  0  0  0  0
  5  6  2  0  0  0  0
  6  1  1  0  0  0  0
  5  7  1  0  0  0  0
  7  8  1  0  0  0  0
  8  9  2  0  0  0  0
  9 10  1  0  0  0  0
 10 11  2  0  0  0  0
 11 12  1  0  0  0  0
 12 13  2  0  0  0  0
 13  8  1  0  0  0  0
  7 14  2  0  0  0  0
M  END
> <Molecule Name>
14

> <CDD Number>
CDD-15631

> <Human_sEH_IC50_uM>
500.0

> <Mouse_sEH_IC50_uM>
500.0

$$$$

SketchEl molfile

 12 13  0  0  0  0  0  0  0  0999 V2000
    0.0000    2.1000    0.0000 C   0  0  0  0  0  0  0  0  0  0  0  0
    0.0000    0.7000    0.0000 C   0  0  0  0  0  0  0  0  0  0  0  0
    1.2124    0.0000    0.0000 N   0  0  0  0  0  0  0  0  0  0  0  0
    2.4249    0.7000    0.0000 C   0  0  0  0  0  0  0  0  0  0  0  0
    2.4249    2.1000    0.0000 C   0  0  0  0  0  0  0  0  0  0  0  0
    1.2124    2.8000    0.0000 C   0  0  0  0  0  0  0  0  0  0  0  0
    3.8249    0.7000    0.0000 C   0  0  0  0  0  0  0  0  0  0  0  0
    5.0373    0.0000    0.0000 N   0  0  0  0  0  0  0  0  0  0  0  0
    6.2497    0.7000    0.0000 C   0  0  0  0  0  0  0  0  0  0  0  0
    6.2497    2.1000    0.0000 C   0  0  0  0  0  0  0  0  0  0  0  0
    5.0373    2.8000    0.0000 C   0  0  0  0  0  0  0  0  0  0  0  0
    3.8249    2.1000    0.0000 C   0  0  0  0  0  0  0  0  0  0  0  0
  1  2  2  0  0  0  0
  2  3  1  0  0  0  0
  3  4  2  0  0  0  0
  4  5  1  0  0  0  0
  5  6  2  0  0  0  0
  6  1  1  0  0  0  0
  4  7  1  0  0  0  0
  7  8  2  0  0  0  0
  8  9  1  0  0  0  0
  9 10  2  0  0  0  0
 10 11  1  0  0  0  0
 11 12  2  0  0  0  0
 12  7  1  0  0  0  0
M  END
> <Molecule Name>
13

> <CDD Number>
CDD-15630

> <Human_sEH_IC50_uM>
500.0

> <Mouse_sEH_IC50_uM>
500.0

$$$$

SketchEl molfile

 21 21  0  0  0  0  0  0  0  0999 V2000
    2.8000    2.4724    0.0000 N   0  0  0  0  0  0  0  0  0  0  0  0
    2.1000    3.6849    0.0000 C   0  0  0  0  0  0  0  0  0  0  0  0
    2.1000    1.2600    0.0000 C   0  0  0  0  0  0  0  0  0  0  0  0
    0.7000    3.6849    0.0000 C   0  0  0  0  0  0  0  0  0  0  0  0
    0.7000    1.2600    0.0000 C   0  0  0  0  0  0  0  0  0  0  0  0
    0.0000    2.4724    0.0000 C   0  0  0  0  0  0  0  0  0  0  0  0
    4.2000    2.4724    0.0000 C   0  0  0  0  0  0  0  0  0  0  0  0
    4.2000    3.8724    0.0000 Cl  0  0  0  0  0  0  0  0  0  0  0  0
    5.6000    2.4724    0.0000 N   0  3  0  0  0  0  0  0  0  0  0  0
    6.3000    3.6849    0.0000 C   0  0  0  0  0  0  0  0  0  0  0  0
    6.3000    1.2600    0.0000 C   0  0  0  0  0  0  0  0  0  0  0  0
    7.7000    1.2600    0.0000 C   0  0  0  0  0  0  0  0  0  0  0  0
    7.7000    3.6849    0.0000 C   0  0  0  0  0  0  0  0  0  0  0  0
    8.4000    2.4724    0.0000 C   0  0  0  0  0  0  0  0  0  0  0  0
    4.7124    1.2124    0.0000 P   0  5  0  0  0  0  0  0  0  0  0  0
    4.0124    2.4249    0.0000 F   0  0  0  0  0  0  0  0  0  0  0  0
    5.4124    2.4249    0.0000 F   0  0  0  0  0  0  0  0  0  0  0  0
    6.1124    1.2124    0.0000 F   0  0  0  0  0  0  0  0  0  0  0  0
    5.4124    0.0000    0.0000 F   0  0  0  0  0  0  0  0  0  0  0  0
    4.0124    0.0000    0.0000 F   0  0  0  0  0  0  0  0  0  0  0  0
    3.3124    1.2124    0.0000 F   0  0  0  0  0  0  0  0  0  0  0  0
  1  2  1  0  0  0  0
  1  3  1  0  0  0  0
  2  4  1  0  0  0  0
  3  5  1  0  0  0  0
  5  6  1  0  0  0  0
  4  6  1  0  0  0  0
  1  7  1  0  0  0  0
  7  8  1  0  0  0  0
  7  9  2  0  0  0  0
  9 10  1  0  0  0  0
  9 11  1  0  0  0  0
 11 12  1  0  0  0  0
 10 13  1  0  0  0  0
 13 14  1  0  0  0  0
 12 14  1  0  0  0  0
 15 16  1  0  0  0  0
 15 17  1  0  0  0  0
 15 18  1  0  0  0  0
 15 19  1  0  0  0  0
 15 20  1  0  0  0  0
 15 21  1  0  0  0  0
M  CHG  2   9   1  15  -1
M  END
> <Molecule Name>
12

> <CDD Number>
CDD-15629

> <Human_sEH_IC50_uM>
500.0

> <Mouse_sEH_IC50_uM>
500.0

$$$$

SketchEl molfile

  7  5  0  0  0  0  0  0  0  0999 V2000
    4.8497    0.0000    0.0000 N   0  0  0  0  0  0  0  0  0  0  0  0
    3.6373    0.7000    0.0000 C   0  0  0  0  0  0  0  0  0  0  0  0
    3.6373    2.1000    0.0000 O   0  5  0  0  0  0  0  0  0  0  0  0
    2.4249    0.0000    0.0000 N   0  0  0  0  0  0  0  0  0  0  0  0
    1.2124    0.7000    0.0000 C   0  0  0  0  0  0  0  0  0  0  0  0
    0.0000    1.4000    0.0000 N   0  0  0  0  0  0  0  0  0  0  0  0
    5.2249    2.1000    0.0000 Na  0  3  0  0  0  0  0  0  0  0  0  0
  1  2  1  0  0  0  0
  2  3  1  0  0  0  0
  2  4  2  0  0  0  0
  4  5  1  0  0  0  0
  5  6  3  0  0  0  0
M  CHG  2   3  -1   7   1
M  END
> <Molecule Name>
11

> <CDD Number>
CDD-15789

> <Human_sEH_IC50_uM>
500.0

> <Mouse_sEH_IC50_uM>
500.0

$$$$

SketchEl molfile

 10  9  0  0  0  0  0  0  0  0999 V2000
    0.0000    0.8721    0.0000 C   0  0  0  0  0  0  0  0  0  0  0  0
    1.2124    0.1721    0.0000 C   0  0  0  0  0  0  0  0  0  0  0  0
    2.4249    0.8721    0.0000 C   0  0  0  0  0  0  0  0  0  0  0  0
    3.6373    0.1721    0.0000 N   0  0  0  0  0  0  0  0  0  0  0  0
    4.6273    0.7728    0.0000 C   0  0  0  0  0  0  0  0  0  0  0  0
    5.8397    0.0728    0.0000 N   0  0  0  0  0  0  0  0  0  0  0  0
    6.8296    0.6734    0.0000 C   0  0  0  0  0  0  0  0  0  0  0  0
    4.6273    2.1728    0.0000 O   0  0  0  0  0  0  0  0  0  0  0  0
    8.0570    0.0000    0.0000 C   0  0  0  0  0  0  0  0  0  0  0  0
    9.2695    0.7000    0.0000 C   0  0  0  0  0  0  0  0  0  0  0  0
  1  2  1  0  0  0  0
  2  3  1  0  0  0  0
  3  4  1  0  0  0  0
  4  5  1  0  0  0  0
  5  6  1  0  0  0  0
  6  7  1  0  0  0  0
  5  8  2  0  0  0  0
  7  9  1  0  0  0  0
  9 10  1  0  0  0  0
M  END
> <Molecule Name>
10

> <CDD Number>
CDD-15795

> <Human_sEH_IC50_uM>
500.0

> <Mouse_sEH_IC50_uM>
500.0

$$$$

SketchEl molfile

 11 12  0  0  0  0  0  0  0  0999 V2000
    0.0000    2.1000    0.0000 C   0  0  0  0  0  0  0  0  0  0  0  0
    0.0000    0.7000    0.0000 C   0  0  0  0  0  0  0  0  0  0  0  0
    1.2124    0.0000    0.0000 C   0  0  0  0  0  0  0  0  0  0  0  0
    2.4249    0.7000    0.0000 C   0  0  0  0  0  0  0  0  0  0  0  0
    2.4249    2.1000    0.0000 C   0  0  0  0  0  0  0  0  0  0  0  0
    1.2124    2.8000    0.0000 C   0  0  0  0  0  0  0  0  0  0  0  0
    3.6373    2.8000    0.0000 O   0  0  0  0  0  0  0  0  0  0  0  0
    3.6373    0.0000    0.0000 C   0  0  0  0  0  0  0  0  0  0  0  0
    4.8497    0.7000    0.0000 N   0  0  0  0  0  0  0  0  0  0  0  0
    4.8497    2.1000    0.0000 C   0  0  0  0  0  0  0  0  0  0  0  0
    6.0622    2.8000    0.0000 Cl  0  0  0  0  0  0  0  0  0  0  0  0
  1  2  2  0  0  0  0
  2  3  1  0  0  0  0
  3  4  2  0  0  0  0
  4  5  1  0  0  0  0
  5  6  2  0  0  0  0
  6  1  1  0  0  0  0
  5  7  1  0  0  0  0
  4  8  1  0  0  0  0
  8  9  1  0  0  0  0
  7 10  1  0  0  0  0
 10  9  2  0  0  0  0
 10 11  1  0  0  0  0
M  END
> <Molecule Name>
9

> <CDD Number>
CDD-15628

> <Human_sEH_IC50_uM>
500.0

> <Mouse_sEH_IC50_uM>
500.0

$$$$

SketchEl molfile

 22 23  0  0  0  0  0  0  0  0999 V2000
    2.4249    2.1993    0.0000 C   0  0  0  0  0  0  0  0  0  0  0  0
    2.4249    0.7993    0.0000 C   0  0  0  0  0  0  0  0  0  0  0  0
    3.6373    0.0993    0.0000 C   0  0  0  0  0  0  0  0  0  0  0  0
    4.8497    0.7993    0.0000 C   0  0  0  0  0  0  0  0  0  0  0  0
    4.8497    2.1993    0.0000 C   0  0  0  0  0  0  0  0  0  0  0  0
    3.6373    2.8993    0.0000 C   0  0  0  0  0  0  0  0  0  0  0  0
    6.0622    0.0993    0.0000 N   0  0  0  0  0  0  0  0  0  0  0  0
    7.2746    0.7993    0.0000 C   0  0  0  0  0  0  0  0  0  0  0  0
    8.4870    0.0993    0.0000 N   0  0  0  0  0  0  0  0  0  0  0  0
    7.2746    2.1993    0.0000 O   0  0  0  0  0  0  0  0  0  0  0  0
    9.4770    0.7000    0.0000 C   0  0  0  0  0  0  0  0  0  0  0  0
   10.6894    0.0000    0.0000 C   0  0  0  0  0  0  0  0  0  0  0  0
   11.9019    0.7000    0.0000 C   0  0  0  0  0  0  0  0  0  0  0  0
   11.9019    2.1000    0.0000 C   0  0  0  0  0  0  0  0  0  0  0  0
   10.6894    2.8000    0.0000 C   0  0  0  0  0  0  0  0  0  0  0  0
    9.4770    2.1000    0.0000 C   0  0  0  0  0  0  0  0  0  0  0  0
    1.2124    2.8993    0.0000 N   0  3  0  0  0  0  0  0  0  0  0  0
    1.2124    4.2993    0.0000 O   0  0  0  0  0  0  0  0  0  0  0  0
    0.0000    2.1993    0.0000 O   0  5  0  0  0  0  0  0  0  0  0  0
   13.1143    2.8000    0.0000 N   0  3  0  0  0  0  0  0  0  0  0  0
   13.1143    4.2000    0.0000 O   0  0  0  0  0  0  0  0  0  0  0  0
   14.3267    2.1000    0.0000 O   0  5  0  0  0  0  0  0  0  0  0  0
  1  2  2  0  0  0  0
  2  3  1  0  0  0  0
  3  4  2  0  0  0  0
  4  5  1  0  0  0  0
  5  6  2  0  0  0  0
  6  1  1  0  0  0  0
  4  7  1  0  0  0  0
  7  8  1  0  0  0  0
  8  9  1  0  0  0  0
  8 10  2  0  0  0  0
  9 11  1  0  0  0  0
 11 12  2  0  0  0  0
 12 13  1  0  0  0  0
 13 14  2  0  0  0  0
 14 15  1  0  0  0  0
 15 16  2  0  0  0  0
 16 11  1  0  0  0  0
  1 17  1  0  0  0  0
 14 20  1  0  0  0  0
 17 18  2  0  0  0  0
 17 19  1  0  0  0  0
 20 21  2  0  0  0  0
 20 22  1  0  0  0  0
M  CHG  4  17   1  19  -1  20   1  22  -1
M  END
> <Molecule Name>
8

> <CDD Number>
CDD-9328

> <Human_sEH_IC50_uM>
17.0

> <Mouse_sEH_IC50_uM>
88.0

$$$$

SketchEl molfile

 10  9  0  0  0  0  0  0  0  0999 V2000
    3.9736    0.1721    0.0000 N   0  0  0  0  0  0  0  0  0  0  0  0
    4.9635    0.7728    0.0000 C   0  0  0  0  0  0  0  0  0  0  0  0
    6.1760    0.0728    0.0000 N   0  0  0  0  0  0  0  0  0  0  0  0
    4.9635    2.1728    0.0000 O   0  0  0  0  0  0  0  0  0  0  0  0
    2.4249    0.8721    0.0000 C   0  0  0  0  0  0  0  0  0  0  0  0
    1.2124    0.1721    0.0000 C   0  0  0  0  0  0  0  0  0  0  0  0
    0.0000    0.8721    0.0000 C   0  0  0  0  0  0  0  0  0  0  0  0
    7.1659    0.6734    0.0000 C   0  0  0  0  0  0  0  0  0  0  0  0
    8.3933    0.0000    0.0000 C   0  0  0  0  0  0  0  0  0  0  0  0
    9.6058    0.7000    0.0000 C   0  0  0  0  0  0  0  0  0  0  0  0
  1  2  1  0  0  0  0
  2  3  1  0  0  0  0
  2  4  2  0  0  0  0
  1  5  1  0  0  0  0
  5  6  1  0  0  0  0
  6  7  2  0  0  0  0
  3  8  1  0  0  0  0
  8  9  1  0  0  0  0
  9 10  2  0  0  0  0
M  END
> <Molecule Name>
7

> <CDD Number>
CDD-15796

> <Human_sEH_IC50_uM>
500.0

> <Mouse_sEH_IC50_uM>
500.0

$$$$

SketchEl molfile

  8  7  0  0  0  0  0  0  0  0999 V2000
    1.2124    1.4993    0.0000 N   0  0  0  0  0  0  0  0  0  0  0  0
    2.2024    2.1000    0.0000 C   0  0  0  0  0  0  0  0  0  0  0  0
    3.4148    1.4000    0.0000 N   0  0  0  0  0  0  0  0  0  0  0  0
    2.2024    3.5000    0.0000 O   0  0  0  0  0  0  0  0  0  0  0  0
    4.4048    2.0007    0.0000 C   0  0  0  0  0  0  0  0  0  0  0  0
    3.4148    0.0000    0.0000 C   0  0  0  0  0  0  0  0  0  0  0  0
    1.2124    0.0993    0.0000 C   0  0  0  0  0  0  0  0  0  0  0  0
    0.0000    2.1993    0.0000 C   0  0  0  0  0  0  0  0  0  0  0  0
  1  2  1  0  0  0  0
  2  3  1  0  0  0  0
  2  4  2  0  0  0  0
  3  5  1  0  0  0  0
  3  6  1  0  0  0  0
  1  7  1  0  0  0  0
  1  8  1  0  0  0  0
M  END
> <Molecule Name>
6

> <CDD Number>
CDD-15793

> <Human_sEH_IC50_uM>
500.0

> <Mouse_sEH_IC50_uM>
500.0

$$$$

SketchEl molfile

 18 19  0  0  0  0  0  0  0  0999 V2000
    3.6373    9.8000    0.0000 C   0  0  0  0  0  0  0  0  0  0  0  0
    3.6373    8.4000    0.0000 S   0  0  0  0  0  0  0  0  0  0  0  0
    4.8497    7.7000    0.0000 C   0  0  0  0  0  0  0  0  0  0  0  0
    6.0622    8.4000    0.0000 C   0  0  0  0  0  0  0  0  0  0  0  0
    6.0622    9.8000    0.0000 C   0  0  0  0  0  0  0  0  0  0  0  0
    4.8497   10.5000    0.0000 C   0  0  0  0  0  0  0  0  0  0  0  0
    4.8497    6.3000    0.0000 C   0  0  0  0  0  0  0  0  0  0  0  0
    3.6373    5.6000    0.0000 C   0  0  0  0  0  0  0  0  0  0  0  0
    3.6373    4.2000    0.0000 C   0  0  0  0  0  0  0  0  0  0  0  0
    2.4249    3.5000    0.0000 C   0  0  0  0  0  0  0  0  0  0  0  0
    2.4249    2.1000    0.0000 C   0  0  0  0  0  0  0  0  0  0  0  0
    1.2124    1.4000    0.0000 C   0  0  0  0  0  0  0  0  0  0  0  0
    1.2124    0.0000    0.0000 O   0  0  0  0  0  0  0  0  0  0  0  0
    0.0000    2.1000    0.0000 O   0  0  0  0  0  0  0  0  0  0  0  0
    7.4145   10.1623    0.0000 N   0  0  0  0  0  0  0  0  0  0  0  0
    7.4145    8.0377    0.0000 N   0  0  0  0  0  0  0  0  0  0  0  0
    8.4044    9.1962    0.0000 C   0  0  0  0  0  0  0  0  0  0  0  0
    9.8036    9.1962    0.0000 O   0  0  0  0  0  0  0  0  0  0  0  0
  1  2  1  0  0  0  0
  2  3  1  0  0  0  0
  3  4  1  0  0  0  0
  4  5  1  0  0  0  0
  5  6  1  0  0  0  0
  6  1  1  0  0  0  0
  3  7  1  0  0  0  0
  7  8  1  0  0  0  0
  8  9  1  0  0  0  0
  9 10  1  0  0  0  0
 10 11  1  0  0  0  0
 11 12  1  0  0  0  0
 12 13  1  0  0  0  0
 12 14  2  0  0  0  0
  5 15  1  0  0  0  0
  4 16  1  0  0  0  0
 15 17  1  0  0  0  0
 16 17  1  0  0  0  0
 17 18  2  0  0  0  0
M  END
> <Molecule Name>
5

> <CDD Number>
CDD-15627

> <Human_sEH_IC50_uM>
500.0

> <Mouse_sEH_IC50_uM>
500.0

$$$$

SketchEl molfile

 20 23  0  0  0  0  0  0  0  0999 V2000
    0.0000    2.9748    0.0000 C   0  0  0  0  0  0  0  0  0  0  0  0
    0.0000    1.5748    0.0000 C   0  0  0  0  0  0  0  0  0  0  0  0
    1.2124    0.8748    0.0000 C   0  0  0  0  0  0  0  0  0  0  0  0
    2.4249    1.5748    0.0000 C   0  0  0  0  0  0  0  0  0  0  0  0
    2.4249    2.9748    0.0000 C   0  0  0  0  0  0  0  0  0  0  0  0
    1.2124    3.6748    0.0000 C   0  0  0  0  0  0  0  0  0  0  0  0
    3.7772    3.3371    0.0000 C   0  0  0  0  0  0  0  0  0  0  0  0
    3.7772    1.2124    0.0000 N   0  0  0  0  0  0  0  0  0  0  0  0
    4.7671    2.2024    0.0000 C   0  0  0  0  0  0  0  0  0  0  0  0
    4.4772    4.5496    0.0000 O   0  0  0  0  0  0  0  0  0  0  0  0
    6.1671    2.2024    0.0000 C   0  0  0  0  0  0  0  0  0  0  0  0
    7.1571    3.1923    0.0000 N   0  0  0  0  0  0  0  0  0  0  0  0
    7.1571    1.2124    0.0000 C   0  0  0  0  0  0  0  0  0  0  0  0
    8.5094    1.5748    0.0000 C   0  0  0  0  0  0  0  0  0  0  0  0
    8.5094    2.8300    0.0000 C   0  0  0  0  0  0  0  0  0  0  0  0
    9.5964    0.9472    0.0000 C   0  0  0  0  0  0  0  0  0  0  0  0
   10.6834    1.5748    0.0000 C   0  0  0  0  0  0  0  0  0  0  0  0
   10.6834    2.8300    0.0000 C   0  0  0  0  0  0  0  0  0  0  0  0
    9.5964    3.4576    0.0000 C   0  0  0  0  0  0  0  0  0  0  0  0
    6.4571    0.0000    0.0000 O   0  0  0  0  0  0  0  0  0  0  0  0
  1  2  2  0  0  0  0
  2  3  1  0  0  0  0
  3  4  2  0  0  0  0
  4  5  1  0  0  0  0
  5  6  2  0  0  0  0
  6  1  1  0  0  0  0
  5  7  1  0  0  0  0
  4  8  1  0  0  0  0
  8  9  1  0  0  0  0
  7  9  1  0  0  0  0
  7 10  2  0  0  0  0
  9 11  2  0  0  0  0
 11 12  1  0  0  0  0
 11 13  1  0  0  0  0
 13 14  1  0  0  0  0
 12 15  1  0  0  0  0
 15 14  2  0  0  0  0
 14 16  1  0  0  0  0
 16 17  2  0  0  0  0
 17 18  1  0  0  0  0
 18 19  2  0  0  0  0
 19 15  1  0  0  0  0
 13 20  2  0  0  0  0
M  END
> <Molecule Name>
4

> <CDD Number>
CDD-15626

> <Human_sEH_IC50_uM>
500.0

> <Mouse_sEH_IC50_uM>
500.0

$$$$

SketchEl molfile

  7  7  0  0  0  0  0  0  0  0999 V2000
    0.0000    2.1000    0.0000 N   0  0  0  0  0  0  0  0  0  0  0  0
    0.0000    0.7000    0.0000 C   0  0  0  0  0  0  0  0  0  0  0  0
    1.2124    0.0000    0.0000 C   0  0  0  0  0  0  0  0  0  0  0  0
    2.4249    0.7000    0.0000 C   0  0  0  0  0  0  0  0  0  0  0  0
    2.4249    2.1000    0.0000 N   0  0  0  0  0  0  0  0  0  0  0  0
    1.2124    2.8000    0.0000 C   0  0  0  0  0  0  0  0  0  0  0  0
    1.2124    4.2000    0.0000 O   0  0  0  0  0  0  0  0  0  0  0  0
  1  2  1  0  0  0  0
  2  3  1  0  0  0  0
  3  4  1  0  0  0  0
  4  5  1  0  0  0  0
  5  6  1  0  0  0  0
  6  1  1  0  0  0  0
  6  7  2  0  0  0  0
M  END
> <Molecule Name>
3

> <CDD Number>
CDD-15625

> <Human_sEH_IC50_uM>
500.0

> <Mouse_sEH_IC50_uM>
500.0

$$$$

SketchEl molfile

 10 11  0  0  0  0  0  0  0  0999 V2000
    0.0000    2.1000    0.0000 C   0  0  0  0  0  0  0  0  0  0  0  0
    0.0000    0.7000    0.0000 C   0  0  0  0  0  0  0  0  0  0  0  0
    1.2124    0.0000    0.0000 C   0  0  0  0  0  0  0  0  0  0  0  0
    2.4249    0.7000    0.0000 C   0  0  0  0  0  0  0  0  0  0  0  0
    2.4249    2.1000    0.0000 C   0  0  0  0  0  0  0  0  0  0  0  0
    1.2124    2.8000    0.0000 C   0  0  0  0  0  0  0  0  0  0  0  0
    3.7772    2.4623    0.0000 N   0  0  0  0  0  0  0  0  0  0  0  0
    3.7772    0.3377    0.0000 N   0  0  0  0  0  0  0  0  0  0  0  0
    4.7671    1.4724    0.0000 C   0  0  0  0  0  0  0  0  0  0  0  0
    6.1671    1.4724    0.0000 O   0  0  0  0  0  0  0  0  0  0  0  0
  1  2  2  0  0  0  0
  2  3  1  0  0  0  0
  3  4  2  0  0  0  0
  4  5  1  0  0  0  0
  5  6  2  0  0  0  0
  6  1  1  0  0  0  0
  5  7  1  0  0  0  0
  4  8  1  0  0  0  0
  7  9  1  0  0  0  0
  8  9  1  0  0  0  0
  9 10  2  0  0  0  0
M  END
> <Molecule Name>
2

> <CDD Number>
CDD-15624

> <Human_sEH_IC50_uM>
500.0

> <Mouse_sEH_IC50_uM>
500.0

$$$$

SketchEl molfile

  6  6  0  0  0  0  0  0  0  0999 V2000
    0.3623    0.0000    0.0000 C   0  0  0  0  0  0  0  0  0  0  0  0
    1.7623    0.0000    0.0000 C   0  0  0  0  0  0  0  0  0  0  0  0
    2.1247    1.3523    0.0000 N   0  0  0  0  0  0  0  0  0  0  0  0
    0.0000    1.3523    0.0000 N   0  0  0  0  0  0  0  0  0  0  0  0
    1.1347    2.3422    0.0000 C   0  0  0  0  0  0  0  0  0  0  0  0
    1.1347    3.7422    0.0000 O   0  0  0  0  0  0  0  0  0  0  0  0
  1  2  1  0  0  0  0
  2  3  1  0  0  0  0
  1  4  1  0  0  0  0
  3  5  1  0  0  0  0
  4  5  1  0  0  0  0
  5  6  2  0  0  0  0
M  END
> <Molecule Name>
1

> <CDD Number>
CDD-6195

> <Human_sEH_IC50_uM>
500.0

> <Mouse_sEH_IC50_uM>
500.0

$$$$
